/*---------------------------------------------------------------------------*\
| =========                 |                                                 |
| \\      /  F ield         | OpenFOAM: The Open Source CFD Toolbox           |
|  \\    /   O peration     | Version:  2.1                                   |
|   \\  /    A nd           | Web:      www.OpenFOAM.org                      |
|    \\/     M anipulation  |                                                 |
\*---------------------------------------------------------------------------*/
/*   Windows 32 and 64 bit porting by blueCAPE: http://www.bluecape.com.pt   *\
|  Based on Windows porting (2.0.x v4) by Symscape: http://www.symscape.com   |
\*---------------------------------------------------------------------------*/
Build  : 2.1-88b2f2ae3a0b
Exec   : checkmesh
Date   : Mar 24 2014
Time   : 14:58:15
Host   : "AIRBEAR-W7-I5"
PID    : 5048
Case   : D:/Projects/Test/ToolOpenFoamErrorOpenCellsFoundFixed
nProcs : 1
SigFpe : Enabling floating point exception trapping (FOAM_SIGFPE).
fileModificationChecking : Monitoring run-time modified files using timeStampMaster
allowSystemOperations : Allowing user-supplied system call operations

// * * * * * * * * * * * * * * * * * * * * * * * * * * * * * * * * * * * * * //
Create time

Create polyMesh for time = 0

Time = 0

Mesh stats
    points:           8
    internal points:  0
    faces:            9
    internal faces:   1
    cells:            2
    boundary patches: 6
    point zones:      0
    face zones:       0
    cell zones:       0

Overall number of cells of each type:
    hexahedra:     0
    prisms:        2
    wedges:        0
    pyramids:      0
    tet wedges:    0
    tetrahedra:    0
    polyhedra:     0

Checking topology...
    Boundary definition OK.
    Cell to face addressing OK.
    Point usage OK.
    Upper triangular ordering OK.
    Face vertices OK.
    Number of regions: 1 (OK).

Checking patch topology for multiply connected surfaces ...
    Patch               Faces    Points   Surface topology                  
    back                1        4        ok (non-closed singly connected)  
    bottom              2        4        ok (non-closed singly connected)  
    front               1        4        ok (non-closed singly connected)  
    left                1        4        ok (non-closed singly connected)  
    right               1        4        ok (non-closed singly connected)  
    top                 2        4        ok (non-closed singly connected)  

Checking geometry...
    Overall domain bounding box (-1 -1 0) (1 1 1)
    Mesh (non-empty, non-wedge) directions (1 1 1)
    Mesh (non-empty) directions (1 1 1)
    Boundary openness (0 0 0) OK.
    Max cell openness = 0 OK.
    Max aspect ratio = 2 OK.
    Minimum face area = 1. Maximum face area = 2.  Face area magnitudes OK.
    Min volume = 1. Max volume = 1.  Total volume = 2.  Cell volumes OK.
    Mesh non-orthogonality Max: 0 average: 0
    Non-orthogonality check OK.
    Face pyramids OK.
    Max skewness = 0.333333 OK.
    Coupled point location match (average 0) OK.

Mesh OK.

End

