/*---------------------------------------------------------------------------*\
| =========                 |                                                 |
| \\      /  F ield         | OpenFOAM: The Open Source CFD Toolbox           |
|  \\    /   O peration     | Version:  2.1                                   |
|   \\  /    A nd           | Web:      www.OpenFOAM.org                      |
|    \\/     M anipulation  |                                                 |
\*---------------------------------------------------------------------------*/
/*   Windows 32 and 64 bit porting by blueCAPE: http://www.bluecape.com.pt   *\
|  Based on Windows porting (2.0.x v4) by Symscape: http://www.symscape.com   |
\*---------------------------------------------------------------------------*/
Build  : 2.1-88b2f2ae3a0b
Exec   : rhoSimplecFoam
Date   : Nov 21 2013
Time   : 12:24:41
Host   : "AIRBEAR-W7-I5"
PID    : 5216
Case   : D:/Projects/Test/ToolOpenFoamExample10
nProcs : 1
SigFpe : Enabling floating point exception trapping (FOAM_SIGFPE).
fileModificationChecking : Monitoring run-time modified files using timeStampMaster
allowSystemOperations : Allowing user-supplied system call operations

// * * * * * * * * * * * * * * * * * * * * * * * * * * * * * * * * * * * * * //
Create time

Create mesh for time = 0


SIMPLE: no convergence criteria found. Calculations will run for 500 steps.

Reading thermophysical properties

Selecting thermodynamics package hPsiThermo<pureMixture<sutherlandTransport<specieThermo<hConstThermo<perfectGas>>>>>
Reading field U

Reading/calculating face flux field phi

Creating turbulence model

Selecting RAS turbulence model kEpsilon
kEpsilonCoeffs
{
    Cmu             0.09;
    C1              1.44;
    C2              1.92;
    C3              -0.33;
    sigmak          1;
    sigmaEps        1.3;
    Prt             1;
}


Starting time loop

Time = 1

GAMG:  Solving for Ux, Initial residual = 1, Final residual = 0.0173468, No Iterations 1
GAMG:  Solving for Uy, Initial residual = 1, Final residual = 0.071383, No Iterations 1
GAMG:  Solving for Uz, Initial residual = 1, Final residual = 0.0302412, No Iterations 1
GAMG:  Solving for p, Initial residual = 1, Final residual = 0.0857082, No Iterations 3
time step continuity errors : sum local = 23.8713, global = -18.8238, cumulative = -18.8238
rho max/min : 0.383054 0.382345
GAMG:  Solving for h, Initial residual = 1, Final residual = 0.00100509, No Iterations 1
GAMG:  Solving for epsilon, Initial residual = 0.989298, Final residual = 0.0131934, No Iterations 1
GAMG:  Solving for k, Initial residual = 1, Final residual = 0.00323182, No Iterations 1
ExecutionTime = 3.032 s  ClockTime = 3 s

Time = 2

GAMG:  Solving for Ux, Initial residual = 0.850887, Final residual = 0.000206703, No Iterations 1
GAMG:  Solving for Uy, Initial residual = 0.699189, Final residual = 0.00134683, No Iterations 1
GAMG:  Solving for Uz, Initial residual = 0.988242, Final residual = 0.00298749, No Iterations 1
GAMG:  Solving for p, Initial residual = 0.879339, Final residual = 0.0836952, No Iterations 51
time step continuity errors : sum local = 226.749, global = -160.972, cumulative = -179.796
rho max/min : 0.966273 0.382345
GAMG:  Solving for h, Initial residual = 0.968999, Final residual = 0.000160722, No Iterations 1
GAMG:  Solving for epsilon, Initial residual = 0.218674, Final residual = 8.9504e-007, No Iterations 1
GAMG:  Solving for k, Initial residual = 0.615535, Final residual = 0.00092482, No Iterations 1
ExecutionTime = 4.495 s  ClockTime = 4 s

Time = 3

GAMG:  Solving for Ux, Initial residual = 0.186404, Final residual = 0.00716089, No Iterations 1
GAMG:  Solving for Uy, Initial residual = 0.193045, Final residual = 0.0141867, No Iterations 1
GAMG:  Solving for Uz, Initial residual = 0.723513, Final residual = 0.0125104, No Iterations 1
GAMG:  Solving for p, Initial residual = 0.252128, Final residual = 0.0213872, No Iterations 3
time step continuity errors : sum local = 1587.87, global = -72.7431, cumulative = -252.539
rho max/min : 0.648586 0.258471
GAMG:  Solving for h, Initial residual = 0.633231, Final residual = 0.0569729, No Iterations 1
GAMG:  Solving for epsilon, Initial residual = 0.0837386, Final residual = 0.00145387, No Iterations 1
GAMG:  Solving for k, Initial residual = 0.381307, Final residual = 0.0372753, No Iterations 2
ExecutionTime = 5.306 s  ClockTime = 5 s

Time = 4

GAMG:  Solving for Ux, Initial residual = 0.16804, Final residual = 0.0076744, No Iterations 2
GAMG:  Solving for Uy, Initial residual = 0.203207, Final residual = 0.014495, No Iterations 1
GAMG:  Solving for Uz, Initial residual = 0.403387, Final residual = 0.0265538, No Iterations 1
GAMG:  Solving for p, Initial residual = 0.298423, Final residual = 0.0294352, No Iterations 3
time step continuity errors : sum local = 596.266, global = -114.951, cumulative = -367.49
rho max/min : 1 0.348347
GAMG:  Solving for h, Initial residual = 0.433926, Final residual = 0.0151285, No Iterations 1
GAMG:  Solving for epsilon, Initial residual = 0.0892929, Final residual = 0.00479057, No Iterations 1
GAMG:  Solving for k, Initial residual = 0.437637, Final residual = 0.036662, No Iterations 3
ExecutionTime = 6.146 s  ClockTime = 6 s

Time = 5

GAMG:  Solving for Ux, Initial residual = 0.136455, Final residual = 0.00523012, No Iterations 2
GAMG:  Solving for Uy, Initial residual = 0.135992, Final residual = 0.0107492, No Iterations 1
GAMG:  Solving for Uz, Initial residual = 0.471651, Final residual = 0.041607, No Iterations 1
GAMG:  Solving for p, Initial residual = 0.171084, Final residual = 0.01522, No Iterations 3
time step continuity errors : sum local = 246.748, global = -29.7891, cumulative = -397.279
rho max/min : 0.843575 0.375545
GAMG:  Solving for h, Initial residual = 0.286947, Final residual = 0.00938574, No Iterations 1
GAMG:  Solving for epsilon, Initial residual = 0.0635972, Final residual = 0.00319579, No Iterations 2
GAMG:  Solving for k, Initial residual = 0.237248, Final residual = 0.0228042, No Iterations 1
bounding k, min: -0.00781252 max: 3762.82 average: 241.832
ExecutionTime = 6.985 s  ClockTime = 7 s

Time = 6

GAMG:  Solving for Ux, Initial residual = 0.0655915, Final residual = 0.00485011, No Iterations 1
GAMG:  Solving for Uy, Initial residual = 0.0844385, Final residual = 0.0074761, No Iterations 1
GAMG:  Solving for Uz, Initial residual = 0.33105, Final residual = 0.0311726, No Iterations 1
GAMG:  Solving for p, Initial residual = 0.141801, Final residual = 0.013421, No Iterations 2
time step continuity errors : sum local = 119.673, global = -6.19265, cumulative = -403.472
rho max/min : 0.726632 0.37677
GAMG:  Solving for h, Initial residual = 0.228194, Final residual = 0.00754297, No Iterations 1
GAMG:  Solving for epsilon, Initial residual = 0.09235, Final residual = 0.00195026, No Iterations 1
GAMG:  Solving for k, Initial residual = 0.1131, Final residual = 0.00947086, No Iterations 2
ExecutionTime = 7.786 s  ClockTime = 8 s

Time = 7

GAMG:  Solving for Ux, Initial residual = 0.0453458, Final residual = 0.00382071, No Iterations 1
GAMG:  Solving for Uy, Initial residual = 0.0557053, Final residual = 0.00519375, No Iterations 1
GAMG:  Solving for Uz, Initial residual = 0.290405, Final residual = 0.0264133, No Iterations 1
GAMG:  Solving for p, Initial residual = 0.11784, Final residual = 0.0107201, No Iterations 2
time step continuity errors : sum local = 99.5904, global = -5.2172, cumulative = -408.689
rho max/min : 0.708583 0.379005
GAMG:  Solving for h, Initial residual = 0.180537, Final residual = 0.00678726, No Iterations 1
GAMG:  Solving for epsilon, Initial residual = 0.0131593, Final residual = 0.000948979, No Iterations 2
GAMG:  Solving for k, Initial residual = 0.0863902, Final residual = 0.00789895, No Iterations 2
bounding k, min: -0.0503145 max: 3428.71 average: 337.582
ExecutionTime = 8.643 s  ClockTime = 9 s

Time = 8

GAMG:  Solving for Ux, Initial residual = 0.037904, Final residual = 0.00334125, No Iterations 1
GAMG:  Solving for Uy, Initial residual = 0.0475725, Final residual = 0.00475262, No Iterations 1
GAMG:  Solving for Uz, Initial residual = 0.255216, Final residual = 0.0247211, No Iterations 1
GAMG:  Solving for p, Initial residual = 0.101992, Final residual = 0.00680325, No Iterations 3
time step continuity errors : sum local = 68.3431, global = -7.38998, cumulative = -416.079
rho max/min : 0.679103 0.382779
GAMG:  Solving for h, Initial residual = 0.148338, Final residual = 0.00631345, No Iterations 1
GAMG:  Solving for epsilon, Initial residual = 0.0211683, Final residual = 0.00173112, No Iterations 1
bounding epsilon, min: -147.083 max: 3.38397e+007 average: 1.36697e+006
GAMG:  Solving for k, Initial residual = 0.0701597, Final residual = 0.0064888, No Iterations 2
bounding k, min: -0.0152799 max: 2939.06 average: 369.895
ExecutionTime = 9.482 s  ClockTime = 9 s

Time = 9

GAMG:  Solving for Ux, Initial residual = 0.0325855, Final residual = 0.00324568, No Iterations 1
GAMG:  Solving for Uy, Initial residual = 0.0469941, Final residual = 0.00452247, No Iterations 1
GAMG:  Solving for Uz, Initial residual = 0.214977, Final residual = 0.0131059, No Iterations 2
GAMG:  Solving for p, Initial residual = 0.0905782, Final residual = 0.00530513, No Iterations 3
time step continuity errors : sum local = 50.6422, global = -5.37954, cumulative = -421.459
rho max/min : 0.66214 0.385082
GAMG:  Solving for h, Initial residual = 0.132753, Final residual = 0.00629783, No Iterations 1
GAMG:  Solving for epsilon, Initial residual = 0.0138644, Final residual = 0.00107949, No Iterations 2
GAMG:  Solving for k, Initial residual = 0.0158451, Final residual = 0.00144844, No Iterations 2
ExecutionTime = 10.333 s  ClockTime = 10 s

Time = 10

GAMG:  Solving for Ux, Initial residual = 0.0286236, Final residual = 0.0018779, No Iterations 2
GAMG:  Solving for Uy, Initial residual = 0.0423933, Final residual = 0.00421603, No Iterations 1
GAMG:  Solving for Uz, Initial residual = 0.169298, Final residual = 0.0109022, No Iterations 2
GAMG:  Solving for p, Initial residual = 0.0822348, Final residual = 0.00790575, No Iterations 2
time step continuity errors : sum local = 70.6479, global = -1.936, cumulative = -423.395
rho max/min : 0.648735 0.385725
GAMG:  Solving for h, Initial residual = 0.121915, Final residual = 0.00642602, No Iterations 1
GAMG:  Solving for epsilon, Initial residual = 0.0828922, Final residual = 0.00011813, No Iterations 1
bounding epsilon, min: -18939.8 max: 2.64818e+007 average: 1.71395e+006
GAMG:  Solving for k, Initial residual = 0.00506127, Final residual = 0.000454091, No Iterations 2
bounding k, min: -0.103605 max: 1829.2 average: 426.031
ExecutionTime = 11.189 s  ClockTime = 11 s

Time = 11

GAMG:  Solving for Ux, Initial residual = 0.0246387, Final residual = 0.00167141, No Iterations 2
GAMG:  Solving for Uy, Initial residual = 0.0363954, Final residual = 0.00232504, No Iterations 2
GAMG:  Solving for Uz, Initial residual = 0.140927, Final residual = 0.00952561, No Iterations 2
GAMG:  Solving for p, Initial residual = 0.0810178, Final residual = 0.00798973, No Iterations 2
time step continuity errors : sum local = 65.7548, global = -0.397344, cumulative = -423.792
rho max/min : 0.636562 0.385024
GAMG:  Solving for h, Initial residual = 0.109321, Final residual = 0.00659796, No Iterations 1
GAMG:  Solving for epsilon, Initial residual = 0.0426239, Final residual = 3.71186e-005, No Iterations 1
bounding epsilon, min: -82889.5 max: 2.5083e+007 average: 1.87493e+006
GAMG:  Solving for k, Initial residual = 0.00494849, Final residual = 0.000437655, No Iterations 2
bounding k, min: -0.124122 max: 1796.28 average: 452.57
ExecutionTime = 12.07 s  ClockTime = 12 s

Time = 12

GAMG:  Solving for Ux, Initial residual = 0.0221948, Final residual = 0.00151596, No Iterations 2
GAMG:  Solving for Uy, Initial residual = 0.0314892, Final residual = 0.00227058, No Iterations 2
GAMG:  Solving for Uz, Initial residual = 0.14239, Final residual = 0.00943702, No Iterations 2
GAMG:  Solving for p, Initial residual = 0.0806708, Final residual = 0.00786414, No Iterations 2
time step continuity errors : sum local = 61.2308, global = 0.324376, cumulative = -423.468
rho max/min : 0.628292 0.374827
GAMG:  Solving for h, Initial residual = 0.0994915, Final residual = 0.00661797, No Iterations 1
GAMG:  Solving for epsilon, Initial residual = 0.00646119, Final residual = 4.62772e-005, No Iterations 1
bounding epsilon, min: -91893 max: 2.44089e+007 average: 2.03333e+006
GAMG:  Solving for k, Initial residual = 0.00544853, Final residual = 0.000468938, No Iterations 2
bounding k, min: -3.87125 max: 1764.3 average: 479.121
ExecutionTime = 12.938 s  ClockTime = 13 s

Time = 13

GAMG:  Solving for Ux, Initial residual = 0.0200441, Final residual = 0.00142333, No Iterations 2
GAMG:  Solving for Uy, Initial residual = 0.0288204, Final residual = 0.0023047, No Iterations 2
GAMG:  Solving for Uz, Initial residual = 0.153668, Final residual = 0.00958198, No Iterations 2
GAMG:  Solving for p, Initial residual = 0.080787, Final residual = 0.00784761, No Iterations 2
time step continuity errors : sum local = 57.4252, global = 0.481896, cumulative = -422.986
rho max/min : 0.621252 0.367455
GAMG:  Solving for h, Initial residual = 0.091366, Final residual = 0.00652723, No Iterations 1
GAMG:  Solving for epsilon, Initial residual = 0.00631604, Final residual = 6.52006e-005, No Iterations 1
bounding epsilon, min: -139755 max: 2.37601e+007 average: 2.19617e+006
GAMG:  Solving for k, Initial residual = 0.00501032, Final residual = 0.00041905, No Iterations 2
bounding k, min: -5.25131 max: 1972.74 average: 505.852
ExecutionTime = 13.808 s  ClockTime = 14 s

Time = 14

GAMG:  Solving for Ux, Initial residual = 0.0186523, Final residual = 0.00136593, No Iterations 2
GAMG:  Solving for Uy, Initial residual = 0.027132, Final residual = 0.00236734, No Iterations 2
GAMG:  Solving for Uz, Initial residual = 0.163043, Final residual = 0.00991319, No Iterations 2
GAMG:  Solving for p, Initial residual = 0.079739, Final residual = 0.00776208, No Iterations 2
time step continuity errors : sum local = 53.4909, global = 0.689408, cumulative = -422.296
rho max/min : 0.613581 0.363496
GAMG:  Solving for h, Initial residual = 0.0846394, Final residual = 0.00643202, No Iterations 1
GAMG:  Solving for epsilon, Initial residual = 0.00464456, Final residual = 9.95015e-005, No Iterations 1
bounding epsilon, min: -96992.9 max: 2.3241e+007 average: 2.33913e+006
GAMG:  Solving for k, Initial residual = 0.00886432, Final residual = 0.000733751, No Iterations 2
bounding k, min: -13.065 max: 2259.23 average: 533.508
ExecutionTime = 14.701 s  ClockTime = 15 s

Time = 15

GAMG:  Solving for Ux, Initial residual = 0.233869, Final residual = 0.00486974, No Iterations 1
GAMG:  Solving for Uy, Initial residual = 0.377681, Final residual = 0.00262, No Iterations 1
GAMG:  Solving for Uz, Initial residual = 0.543857, Final residual = 0.0127142, No Iterations 1
GAMG:  Solving for p, Initial residual = 0.0760117, Final residual = 0.00738426, No Iterations 2
time step continuity errors : sum local = 47.9562, global = 0.888367, cumulative = -421.408
rho max/min : 0.604566 0.361424
GAMG:  Solving for h, Initial residual = 0.153263, Final residual = 0.00224357, No Iterations 1
GAMG:  Solving for epsilon, Initial residual = 0.0121764, Final residual = 4.07625e-005, No Iterations 1
bounding epsilon, min: -34399.5 max: 2.28542e+007 average: 2.49148e+006
GAMG:  Solving for k, Initial residual = 0.55883, Final residual = 0.00169128, No Iterations 1
bounding k, min: -35.1038 max: 2524.9 average: 562.841
ExecutionTime = 15.52 s  ClockTime = 15 s

Time = 16

GAMG:  Solving for Ux, Initial residual = 0.0176577, Final residual = 0.00142375, No Iterations 2
GAMG:  Solving for Uy, Initial residual = 0.026138, Final residual = 0.00176811, No Iterations 3
GAMG:  Solving for Uz, Initial residual = 0.187714, Final residual = 0.0119626, No Iterations 2
GAMG:  Solving for p, Initial residual = 0.0709657, Final residual = 0.00704469, No Iterations 2
time step continuity errors : sum local = 43.7632, global = 1.08556, cumulative = -420.323
rho max/min : 0.595323 0.361452
GAMG:  Solving for h, Initial residual = 0.0748599, Final residual = 0.006533, No Iterations 1
GAMG:  Solving for epsilon, Initial residual = 0.0294134, Final residual = 5.37143e-005, No Iterations 1
bounding epsilon, min: -69026.3 max: 2.26339e+007 average: 2.61623e+006
GAMG:  Solving for k, Initial residual = 0.00634804, Final residual = 0.000527047, No Iterations 2
bounding k, min: -7.07322 max: 2772.78 average: 594.494
ExecutionTime = 16.403 s  ClockTime = 16 s

Time = 17

GAMG:  Solving for Ux, Initial residual = 0.0710542, Final residual = 0.00148574, No Iterations 1
GAMG:  Solving for Uy, Initial residual = 0.128762, Final residual = 0.00247602, No Iterations 1
GAMG:  Solving for Uz, Initial residual = 0.254228, Final residual = 0.0105384, No Iterations 1
GAMG:  Solving for p, Initial residual = 0.0654622, Final residual = 0.00366927, No Iterations 3
time step continuity errors : sum local = 21.8149, global = 0.355614, cumulative = -419.967
rho max/min : 0.589907 0.352384
GAMG:  Solving for h, Initial residual = 0.0454161, Final residual = 0.00108898, No Iterations 1
GAMG:  Solving for epsilon, Initial residual = 0.00143668, Final residual = 5.98459e-005, No Iterations 1
bounding epsilon, min: -5035.56 max: 2.25123e+007 average: 2.76272e+006
GAMG:  Solving for k, Initial residual = 0.268079, Final residual = 0.00598224, No Iterations 1
bounding k, min: -28.7308 max: 3034.21 average: 630.129
ExecutionTime = 17.23 s  ClockTime = 17 s

Time = 18

GAMG:  Solving for Ux, Initial residual = 0.0186729, Final residual = 0.00142471, No Iterations 2
GAMG:  Solving for Uy, Initial residual = 0.035367, Final residual = 0.00273523, No Iterations 2
GAMG:  Solving for Uz, Initial residual = 0.245183, Final residual = 0.0119338, No Iterations 2
GAMG:  Solving for p, Initial residual = 0.0599158, Final residual = 0.00573439, No Iterations 2
time step continuity errors : sum local = 33.4635, global = 0.833802, cumulative = -419.133
rho max/min : 0.588345 0.345603
GAMG:  Solving for h, Initial residual = 0.0674311, Final residual = 0.00636443, No Iterations 1
GAMG:  Solving for epsilon, Initial residual = 0.172588, Final residual = 0.000151067, No Iterations 1
bounding epsilon, min: -32235.9 max: 2.24764e+007 average: 2.90645e+006
GAMG:  Solving for k, Initial residual = 0.00767993, Final residual = 0.000572653, No Iterations 2
bounding k, min: -0.684017 max: 3287.8 average: 669.678
ExecutionTime = 18.127 s  ClockTime = 18 s

Time = 19

GAMG:  Solving for Ux, Initial residual = 0.0143569, Final residual = 0.00137566, No Iterations 2
GAMG:  Solving for Uy, Initial residual = 0.0226174, Final residual = 0.00174688, No Iterations 3
GAMG:  Solving for Uz, Initial residual = 0.156253, Final residual = 0.0144057, No Iterations 2
GAMG:  Solving for p, Initial residual = 0.0570352, Final residual = 0.00331356, No Iterations 3
time step continuity errors : sum local = 18.4264, global = 0.51065, cumulative = -418.622
rho max/min : 0.583746 0.338153
GAMG:  Solving for h, Initial residual = 0.0669682, Final residual = 0.00364903, No Iterations 2
GAMG:  Solving for epsilon, Initial residual = 0.0807042, Final residual = 0.000185992, No Iterations 1
bounding epsilon, min: -116877 max: 2.2369e+007 average: 3.06198e+006
GAMG:  Solving for k, Initial residual = 0.0165351, Final residual = 0.00144591, No Iterations 2
bounding k, min: -1.05126 max: 3551.45 average: 715.474
ExecutionTime = 19.06 s  ClockTime = 19 s

Time = 20

GAMG:  Solving for Ux, Initial residual = 0.0140748, Final residual = 0.00135292, No Iterations 2
GAMG:  Solving for Uy, Initial residual = 0.0212703, Final residual = 0.00167005, No Iterations 3
GAMG:  Solving for Uz, Initial residual = 0.151824, Final residual = 0.0143369, No Iterations 2
GAMG:  Solving for p, Initial residual = 0.0532473, Final residual = 0.00498949, No Iterations 2
time step continuity errors : sum local = 26.9855, global = 0.655654, cumulative = -417.967
rho max/min : 0.580248 0.331716
GAMG:  Solving for h, Initial residual = 0.0659647, Final residual = 0.0034712, No Iterations 2
GAMG:  Solving for epsilon, Initial residual = 0.010132, Final residual = 0.000675473, No Iterations 1
bounding epsilon, min: -3172.1 max: 2.2316e+007 average: 3.23948e+006
GAMG:  Solving for k, Initial residual = 0.0243987, Final residual = 0.00216442, No Iterations 2
ExecutionTime = 19.96 s  ClockTime = 20 s

Time = 21

GAMG:  Solving for Ux, Initial residual = 0.0126412, Final residual = 0.000865854, No Iterations 3
GAMG:  Solving for Uy, Initial residual = 0.0196655, Final residual = 0.00155501, No Iterations 3
GAMG:  Solving for Uz, Initial residual = 0.147868, Final residual = 0.0142049, No Iterations 2
GAMG:  Solving for p, Initial residual = 0.0513235, Final residual = 0.00296432, No Iterations 3
time step continuity errors : sum local = 15.4582, global = 0.492388, cumulative = -417.474
rho max/min : 0.573894 0.325538
GAMG:  Solving for h, Initial residual = 0.0642118, Final residual = 0.00333417, No Iterations 2
GAMG:  Solving for epsilon, Initial residual = 0.150326, Final residual = 0.000600337, No Iterations 1
GAMG:  Solving for k, Initial residual = 0.0197417, Final residual = 0.00170131, No Iterations 2
ExecutionTime = 20.866 s  ClockTime = 21 s

Time = 22

GAMG:  Solving for Ux, Initial residual = 0.0123583, Final residual = 0.00121371, No Iterations 2
GAMG:  Solving for Uy, Initial residual = 0.0184499, Final residual = 0.00140132, No Iterations 3
GAMG:  Solving for Uz, Initial residual = 0.148732, Final residual = 0.0142259, No Iterations 2
GAMG:  Solving for p, Initial residual = 0.047099, Final residual = 0.00421759, No Iterations 2
time step continuity errors : sum local = 21.1865, global = 0.537313, cumulative = -416.937
rho max/min : 0.571108 0.323146
GAMG:  Solving for h, Initial residual = 0.0628066, Final residual = 0.00318253, No Iterations 2
GAMG:  Solving for epsilon, Initial residual = 0.0210136, Final residual = 0.000681871, No Iterations 1
GAMG:  Solving for k, Initial residual = 0.0372584, Final residual = 0.00303092, No Iterations 2
ExecutionTime = 21.738 s  ClockTime = 22 s

Time = 23

GAMG:  Solving for Ux, Initial residual = 0.0111863, Final residual = 0.000773792, No Iterations 3
GAMG:  Solving for Uy, Initial residual = 0.0168695, Final residual = 0.00121607, No Iterations 3
GAMG:  Solving for Uz, Initial residual = 0.13673, Final residual = 0.0132367, No Iterations 2
GAMG:  Solving for p, Initial residual = 0.0451146, Final residual = 0.00440484, No Iterations 2
time step continuity errors : sum local = 21.1256, global = 0.76888, cumulative = -416.168
rho max/min : 0.569048 0.32146
GAMG:  Solving for h, Initial residual = 0.0606122, Final residual = 0.00301427, No Iterations 2
GAMG:  Solving for epsilon, Initial residual = 0.0137744, Final residual = 0.00121447, No Iterations 3
GAMG:  Solving for k, Initial residual = 0.0579063, Final residual = 0.00423947, No Iterations 2
ExecutionTime = 22.651 s  ClockTime = 23 s

Time = 24

GAMG:  Solving for Ux, Initial residual = 0.0103852, Final residual = 0.000719882, No Iterations 3
GAMG:  Solving for Uy, Initial residual = 0.0154065, Final residual = 0.00109067, No Iterations 3
GAMG:  Solving for Uz, Initial residual = 0.126183, Final residual = 0.0123358, No Iterations 2
GAMG:  Solving for p, Initial residual = 0.0421723, Final residual = 0.00418251, No Iterations 2
time step continuity errors : sum local = 19.3617, global = 0.818489, cumulative = -415.35
rho max/min : 0.566719 0.321026
GAMG:  Solving for h, Initial residual = 0.058479, Final residual = 0.00286097, No Iterations 2
GAMG:  Solving for epsilon, Initial residual = 0.0140279, Final residual = 0.000882821, No Iterations 3
GAMG:  Solving for k, Initial residual = 0.0585722, Final residual = 0.00425532, No Iterations 2
ExecutionTime = 23.588 s  ClockTime = 23 s

Time = 25

GAMG:  Solving for Ux, Initial residual = 0.00959063, Final residual = 0.000676191, No Iterations 3
GAMG:  Solving for Uy, Initial residual = 0.0142292, Final residual = 0.00100324, No Iterations 3
GAMG:  Solving for Uz, Initial residual = 0.115819, Final residual = 0.0114345, No Iterations 2
GAMG:  Solving for p, Initial residual = 0.0385966, Final residual = 0.00377306, No Iterations 2
time step continuity errors : sum local = 16.8885, global = 0.740349, cumulative = -414.609
rho max/min : 0.564477 0.321732
GAMG:  Solving for h, Initial residual = 0.0564094, Final residual = 0.00274097, No Iterations 2
GAMG:  Solving for epsilon, Initial residual = 0.0112871, Final residual = 0.00112819, No Iterations 2
GAMG:  Solving for k, Initial residual = 0.0546887, Final residual = 0.00410445, No Iterations 2
ExecutionTime = 24.489 s  ClockTime = 24 s

Time = 26

GAMG:  Solving for Ux, Initial residual = 0.00881269, Final residual = 0.000636624, No Iterations 3
GAMG:  Solving for Uy, Initial residual = 0.0131795, Final residual = 0.000923971, No Iterations 3
GAMG:  Solving for Uz, Initial residual = 0.105829, Final residual = 0.00693556, No Iterations 3
GAMG:  Solving for p, Initial residual = 0.0349219, Final residual = 0.0033559, No Iterations 2
time step continuity errors : sum local = 14.5617, global = 0.443515, cumulative = -414.166
rho max/min : 0.561746 0.322775
GAMG:  Solving for h, Initial residual = 0.0543101, Final residual = 0.00264006, No Iterations 2
GAMG:  Solving for epsilon, Initial residual = 0.0105714, Final residual = 0.00102681, No Iterations 2
GAMG:  Solving for k, Initial residual = 0.0510025, Final residual = 0.00398585, No Iterations 2
ExecutionTime = 25.413 s  ClockTime = 25 s

Time = 27

GAMG:  Solving for Ux, Initial residual = 0.00813218, Final residual = 0.000599657, No Iterations 3
GAMG:  Solving for Uy, Initial residual = 0.0122217, Final residual = 0.000856984, No Iterations 3
GAMG:  Solving for Uz, Initial residual = 0.095744, Final residual = 0.00948754, No Iterations 2
GAMG:  Solving for p, Initial residual = 0.0317121, Final residual = 0.00295646, No Iterations 2
time step continuity errors : sum local = 12.5619, global = 0.405122, cumulative = -413.761
rho max/min : 0.559205 0.324622
GAMG:  Solving for h, Initial residual = 0.0521753, Final residual = 0.00255031, No Iterations 2
GAMG:  Solving for epsilon, Initial residual = 0.0099788, Final residual = 0.000952017, No Iterations 2
GAMG:  Solving for k, Initial residual = 0.0476941, Final residual = 0.00385561, No Iterations 2
ExecutionTime = 26.321 s  ClockTime = 26 s

Time = 28

GAMG:  Solving for Ux, Initial residual = 0.00751522, Final residual = 0.000560693, No Iterations 3
GAMG:  Solving for Uy, Initial residual = 0.0113052, Final residual = 0.000801703, No Iterations 3
GAMG:  Solving for Uz, Initial residual = 0.0876925, Final residual = 0.00595012, No Iterations 3
GAMG:  Solving for p, Initial residual = 0.0287853, Final residual = 0.00264569, No Iterations 2
time step continuity errors : sum local = 11.0107, global = 0.342105, cumulative = -413.419
rho max/min : 0.556342 0.326121
GAMG:  Solving for h, Initial residual = 0.0500379, Final residual = 0.00246542, No Iterations 2
GAMG:  Solving for epsilon, Initial residual = 0.00935401, Final residual = 0.000895618, No Iterations 2
GAMG:  Solving for k, Initial residual = 0.0446044, Final residual = 0.00373029, No Iterations 2
ExecutionTime = 27.241 s  ClockTime = 27 s

Time = 29

GAMG:  Solving for Ux, Initial residual = 0.00698921, Final residual = 0.000519985, No Iterations 3
GAMG:  Solving for Uy, Initial residual = 0.0104376, Final residual = 0.000752044, No Iterations 3
GAMG:  Solving for Uz, Initial residual = 0.081191, Final residual = 0.00544792, No Iterations 3
GAMG:  Solving for p, Initial residual = 0.0260909, Final residual = 0.00234002, No Iterations 2
time step continuity errors : sum local = 9.59843, global = 0.178615, cumulative = -413.24
rho max/min : 0.553189 0.327104
GAMG:  Solving for h, Initial residual = 0.047904, Final residual = 0.00238417, No Iterations 2
GAMG:  Solving for epsilon, Initial residual = 0.00871132, Final residual = 0.000848966, No Iterations 2
GAMG:  Solving for k, Initial residual = 0.0416789, Final residual = 0.00360491, No Iterations 2
ExecutionTime = 28.173 s  ClockTime = 28 s

Time = 30

GAMG:  Solving for Ux, Initial residual = 0.00655129, Final residual = 0.000477625, No Iterations 3
GAMG:  Solving for Uy, Initial residual = 0.00963243, Final residual = 0.00070384, No Iterations 3
GAMG:  Solving for Uz, Initial residual = 0.0759193, Final residual = 0.0050684, No Iterations 3
GAMG:  Solving for p, Initial residual = 0.0237278, Final residual = 0.00210629, No Iterations 2
time step continuity errors : sum local = 8.54714, global = 0.185216, cumulative = -413.055
rho max/min : 0.550419 0.328005
GAMG:  Solving for h, Initial residual = 0.045862, Final residual = 0.00230293, No Iterations 2
GAMG:  Solving for epsilon, Initial residual = 0.00806418, Final residual = 0.000800962, No Iterations 2
GAMG:  Solving for k, Initial residual = 0.0389114, Final residual = 0.00347651, No Iterations 2
ExecutionTime = 29.111 s  ClockTime = 29 s

Time = 31

GAMG:  Solving for Ux, Initial residual = 0.00617764, Final residual = 0.000435912, No Iterations 3
GAMG:  Solving for Uy, Initial residual = 0.00886009, Final residual = 0.00065674, No Iterations 3
GAMG:  Solving for Uz, Initial residual = 0.0715164, Final residual = 0.0047686, No Iterations 3
GAMG:  Solving for p, Initial residual = 0.0217146, Final residual = 0.00195986, No Iterations 2
time step continuity errors : sum local = 7.85912, global = 0.084404, cumulative = -412.97
rho max/min : 0.549547 0.328179
GAMG:  Solving for h, Initial residual = 0.0438992, Final residual = 0.00221906, No Iterations 2
GAMG:  Solving for epsilon, Initial residual = 0.00742303, Final residual = 0.000436047, No Iterations 3
GAMG:  Solving for k, Initial residual = 0.0362416, Final residual = 0.00330343, No Iterations 2
ExecutionTime = 30.048 s  ClockTime = 30 s

Time = 32

GAMG:  Solving for Ux, Initial residual = 0.00588444, Final residual = 0.000397389, No Iterations 3
GAMG:  Solving for Uy, Initial residual = 0.00818596, Final residual = 0.000610681, No Iterations 3
GAMG:  Solving for Uz, Initial residual = 0.0677038, Final residual = 0.00452441, No Iterations 3
GAMG:  Solving for p, Initial residual = 0.0198825, Final residual = 0.00183155, No Iterations 2
time step continuity errors : sum local = 7.27743, global = 0.0977829, cumulative = -412.873
rho max/min : 0.549396 0.328167
GAMG:  Solving for h, Initial residual = 0.0420541, Final residual = 0.00213327, No Iterations 2
GAMG:  Solving for epsilon, Initial residual = 0.00663808, Final residual = 0.000631114, No Iterations 2
GAMG:  Solving for k, Initial residual = 0.0337231, Final residual = 0.00314657, No Iterations 2
ExecutionTime = 30.986 s  ClockTime = 31 s

Time = 33

GAMG:  Solving for Ux, Initial residual = 0.00565611, Final residual = 0.000364329, No Iterations 3
GAMG:  Solving for Uy, Initial residual = 0.00759407, Final residual = 0.000567138, No Iterations 3
GAMG:  Solving for Uz, Initial residual = 0.0642513, Final residual = 0.00431087, No Iterations 3
GAMG:  Solving for p, Initial residual = 0.0182548, Final residual = 0.0017422, No Iterations 2
time step continuity errors : sum local = 6.85763, global = -0.00546416, cumulative = -412.878
rho max/min : 0.549105 0.327559
GAMG:  Solving for h, Initial residual = 0.0403101, Final residual = 0.00204701, No Iterations 2
GAMG:  Solving for epsilon, Initial residual = 0.00609888, Final residual = 0.000354583, No Iterations 3
GAMG:  Solving for k, Initial residual = 0.0313927, Final residual = 0.00297927, No Iterations 2
ExecutionTime = 31.917 s  ClockTime = 32 s

Time = 34

GAMG:  Solving for Ux, Initial residual = 0.00549143, Final residual = 0.000536098, No Iterations 2
GAMG:  Solving for Uy, Initial residual = 0.00710885, Final residual = 0.000525071, No Iterations 3
GAMG:  Solving for Uz, Initial residual = 0.0611324, Final residual = 0.0041204, No Iterations 3
GAMG:  Solving for p, Initial residual = 0.0167712, Final residual = 0.00167369, No Iterations 2
time step continuity errors : sum local = 6.54991, global = 0.00206897, cumulative = -412.876
rho max/min : 0.548962 0.326874
GAMG:  Solving for h, Initial residual = 0.0386842, Final residual = 0.00196726, No Iterations 2
GAMG:  Solving for epsilon, Initial residual = 0.00546099, Final residual = 0.000526718, No Iterations 2
GAMG:  Solving for k, Initial residual = 0.0291539, Final residual = 0.00281947, No Iterations 2
ExecutionTime = 32.819 s  ClockTime = 33 s

Time = 35

GAMG:  Solving for Ux, Initial residual = 0.0053465, Final residual = 0.000531821, No Iterations 2
GAMG:  Solving for Uy, Initial residual = 0.00668096, Final residual = 0.000486203, No Iterations 3
GAMG:  Solving for Uz, Initial residual = 0.0583718, Final residual = 0.00394405, No Iterations 3
GAMG:  Solving for p, Initial residual = 0.0154666, Final residual = 0.00100297, No Iterations 3
time step continuity errors : sum local = 3.95343, global = 0.0442152, cumulative = -412.832
rho max/min : 0.548659 0.325382
GAMG:  Solving for h, Initial residual = 0.0371709, Final residual = 0.00188794, No Iterations 2
GAMG:  Solving for epsilon, Initial residual = 0.00503991, Final residual = 0.000300784, No Iterations 3
GAMG:  Solving for k, Initial residual = 0.0271459, Final residual = 0.00265218, No Iterations 2
ExecutionTime = 33.767 s  ClockTime = 34 s

Time = 36

GAMG:  Solving for Ux, Initial residual = 0.00533865, Final residual = 0.000526446, No Iterations 2
GAMG:  Solving for Uy, Initial residual = 0.00646572, Final residual = 0.000453169, No Iterations 3
GAMG:  Solving for Uz, Initial residual = 0.0563103, Final residual = 0.00378579, No Iterations 3
GAMG:  Solving for p, Initial residual = 0.0139824, Final residual = 0.00138785, No Iterations 2
time step continuity errors : sum local = 5.40209, global = -0.00717449, cumulative = -412.839
rho max/min : 0.548674 0.324477
GAMG:  Solving for h, Initial residual = 0.0357991, Final residual = 0.00181528, No Iterations 2
GAMG:  Solving for epsilon, Initial residual = 0.0045121, Final residual = 0.000261307, No Iterations 3
GAMG:  Solving for k, Initial residual = 0.0250284, Final residual = 0.00247151, No Iterations 2
ExecutionTime = 34.719 s  ClockTime = 35 s

Time = 37

GAMG:  Solving for Ux, Initial residual = 0.00507031, Final residual = 0.000317714, No Iterations 3
GAMG:  Solving for Uy, Initial residual = 0.00591637, Final residual = 0.000417798, No Iterations 3
GAMG:  Solving for Uz, Initial residual = 0.0536444, Final residual = 0.00362179, No Iterations 3
GAMG:  Solving for p, Initial residual = 0.0130576, Final residual = 0.000907599, No Iterations 3
time step continuity errors : sum local = 3.56697, global = -0.0371577, cumulative = -412.876
rho max/min : 0.548259 0.322285
GAMG:  Solving for h, Initial residual = 0.0345096, Final residual = 0.00174151, No Iterations 2
GAMG:  Solving for epsilon, Initial residual = 0.00408075, Final residual = 0.000404335, No Iterations 2
GAMG:  Solving for k, Initial residual = 0.0232154, Final residual = 0.00141169, No Iterations 3
ExecutionTime = 35.661 s  ClockTime = 36 s

Time = 38

GAMG:  Solving for Ux, Initial residual = 0.00499123, Final residual = 0.000478903, No Iterations 2
GAMG:  Solving for Uy, Initial residual = 0.00569691, Final residual = 0.000390821, No Iterations 3
GAMG:  Solving for Uz, Initial residual = 0.0516979, Final residual = 0.00349171, No Iterations 3
GAMG:  Solving for p, Initial residual = 0.0117546, Final residual = 0.00077697, No Iterations 3
time step continuity errors : sum local = 3.01614, global = -0.0207982, cumulative = -412.897
rho max/min : 0.548031 0.320525
GAMG:  Solving for h, Initial residual = 0.0332797, Final residual = 0.00168316, No Iterations 2
GAMG:  Solving for epsilon, Initial residual = 0.00378971, Final residual = 0.000238245, No Iterations 3
GAMG:  Solving for k, Initial residual = 0.0213616, Final residual = 0.00206497, No Iterations 2
ExecutionTime = 36.59 s  ClockTime = 36 s

Time = 39

GAMG:  Solving for Ux, Initial residual = 0.00480455, Final residual = 0.000476756, No Iterations 2
GAMG:  Solving for Uy, Initial residual = 0.00533867, Final residual = 0.000367217, No Iterations 3
GAMG:  Solving for Uz, Initial residual = 0.0494777, Final residual = 0.00332881, No Iterations 3
GAMG:  Solving for p, Initial residual = 0.0107568, Final residual = 0.000721746, No Iterations 3
time step continuity errors : sum local = 2.80068, global = -0.0418027, cumulative = -412.939
rho max/min : 0.54778 0.318582
GAMG:  Solving for h, Initial residual = 0.03214, Final residual = 0.001632, No Iterations 2
GAMG:  Solving for epsilon, Initial residual = 0.00342729, Final residual = 0.000206653, No Iterations 3
GAMG:  Solving for k, Initial residual = 0.0197215, Final residual = 0.00195154, No Iterations 2
ExecutionTime = 37.526 s  ClockTime = 37 s

Time = 40

GAMG:  Solving for Ux, Initial residual = 0.00462553, Final residual = 0.000298155, No Iterations 3
GAMG:  Solving for Uy, Initial residual = 0.00497342, Final residual = 0.000343025, No Iterations 3
GAMG:  Solving for Uz, Initial residual = 0.0472392, Final residual = 0.00318075, No Iterations 3
GAMG:  Solving for p, Initial residual = 0.00986027, Final residual = 0.000692633, No Iterations 3
time step continuity errors : sum local = 2.68319, global = -0.0498775, cumulative = -412.989
rho max/min : 0.547472 0.316554
GAMG:  Solving for h, Initial residual = 0.031077, Final residual = 0.00158579, No Iterations 2
GAMG:  Solving for epsilon, Initial residual = 0.00313652, Final residual = 0.000183572, No Iterations 3
GAMG:  Solving for k, Initial residual = 0.0182935, Final residual = 0.00113636, No Iterations 3
ExecutionTime = 38.487 s  ClockTime = 38 s

Time = 41

GAMG:  Solving for Ux, Initial residual = 0.00444895, Final residual = 0.000281883, No Iterations 3
GAMG:  Solving for Uy, Initial residual = 0.00464187, Final residual = 0.000318185, No Iterations 3
GAMG:  Solving for Uz, Initial residual = 0.0450152, Final residual = 0.00305203, No Iterations 3
GAMG:  Solving for p, Initial residual = 0.00905043, Final residual = 0.000661216, No Iterations 3
time step continuity errors : sum local = 2.54996, global = -0.0520465, cumulative = -413.041
rho max/min : 0.547162 0.314597
GAMG:  Solving for h, Initial residual = 0.0300878, Final residual = 0.00154561, No Iterations 2
GAMG:  Solving for epsilon, Initial residual = 0.00291659, Final residual = 0.000290063, No Iterations 2
GAMG:  Solving for k, Initial residual = 0.0170667, Final residual = 0.00168647, No Iterations 2
ExecutionTime = 39.415 s  ClockTime = 39 s

Time = 42

GAMG:  Solving for Ux, Initial residual = 0.00427642, Final residual = 0.000425888, No Iterations 2
GAMG:  Solving for Uy, Initial residual = 0.00434108, Final residual = 0.000293441, No Iterations 3
GAMG:  Solving for Uz, Initial residual = 0.0427871, Final residual = 0.00289177, No Iterations 3
GAMG:  Solving for p, Initial residual = 0.00834702, Final residual = 0.000629149, No Iterations 3
time step continuity errors : sum local = 2.41522, global = -0.0543362, cumulative = -413.095
rho max/min : 0.546862 0.312746
GAMG:  Solving for h, Initial residual = 0.029165, Final residual = 0.0015097, No Iterations 2
GAMG:  Solving for epsilon, Initial residual = 0.00279542, Final residual = 0.000170093, No Iterations 3
GAMG:  Solving for k, Initial residual = 0.0160886, Final residual = 0.00101924, No Iterations 3
ExecutionTime = 40.362 s  ClockTime = 40 s

Time = 43

GAMG:  Solving for Ux, Initial residual = 0.00411363, Final residual = 0.000268592, No Iterations 3
GAMG:  Solving for Uy, Initial residual = 0.00405547, Final residual = 0.000267716, No Iterations 3
GAMG:  Solving for Uz, Initial residual = 0.0404742, Final residual = 0.00274665, No Iterations 3
GAMG:  Solving for p, Initial residual = 0.00770994, Final residual = 0.000600345, No Iterations 3
time step continuity errors : sum local = 2.29276, global = -0.05613, cumulative = -413.151
rho max/min : 0.546569 0.311016
GAMG:  Solving for h, Initial residual = 0.0283089, Final residual = 0.00146498, No Iterations 2
GAMG:  Solving for epsilon, Initial residual = 0.00263261, Final residual = 0.000259582, No Iterations 2
GAMG:  Solving for k, Initial residual = 0.0152347, Final residual = 0.00151978, No Iterations 2
ExecutionTime = 41.294 s  ClockTime = 41 s

Time = 44

GAMG:  Solving for Ux, Initial residual = 0.00393967, Final residual = 0.000250654, No Iterations 3
GAMG:  Solving for Uy, Initial residual = 0.0037758, Final residual = 0.000242087, No Iterations 3
GAMG:  Solving for Uz, Initial residual = 0.0381462, Final residual = 0.00256771, No Iterations 3
GAMG:  Solving for p, Initial residual = 0.00712527, Final residual = 0.000576919, No Iterations 3
time step continuity errors : sum local = 2.19448, global = -0.0587227, cumulative = -413.21
rho max/min : 0.546325 0.309414
GAMG:  Solving for h, Initial residual = 0.0275016, Final residual = 0.00141661, No Iterations 2
GAMG:  Solving for epsilon, Initial residual = 0.00254905, Final residual = 0.000149431, No Iterations 3
GAMG:  Solving for k, Initial residual = 0.0145614, Final residual = 0.000923562, No Iterations 3
ExecutionTime = 42.257 s  ClockTime = 42 s

Time = 45

GAMG:  Solving for Ux, Initial residual = 0.0037642, Final residual = 0.000371412, No Iterations 2
GAMG:  Solving for Uy, Initial residual = 0.00349785, Final residual = 0.000216327, No Iterations 3
GAMG:  Solving for Uz, Initial residual = 0.0357617, Final residual = 0.00240081, No Iterations 3
GAMG:  Solving for p, Initial residual = 0.00657871, Final residual = 0.000554023, No Iterations 3
time step continuity errors : sum local = 2.10487, global = 0.00744979, cumulative = -413.202
rho max/min : 0.546158 0.308058
GAMG:  Solving for h, Initial residual = 0.0267263, Final residual = 0.0013667, No Iterations 2
GAMG:  Solving for epsilon, Initial residual = 0.00241509, Final residual = 0.000224426, No Iterations 2
GAMG:  Solving for k, Initial residual = 0.013922, Final residual = 0.00136599, No Iterations 2
ExecutionTime = 43.177 s  ClockTime = 43 s

Time = 46

GAMG:  Solving for Ux, Initial residual = 0.00357949, Final residual = 0.000229194, No Iterations 3
GAMG:  Solving for Uy, Initial residual = 0.00321978, Final residual = 0.000313828, No Iterations 2
GAMG:  Solving for Uz, Initial residual = 0.0332135, Final residual = 0.0021955, No Iterations 3
GAMG:  Solving for p, Initial residual = 0.00609479, Final residual = 0.000550666, No Iterations 3
time step continuity errors : sum local = 2.1057, global = -0.00440869, cumulative = -413.207
rho max/min : 0.545806 0.306624
GAMG:  Solving for h, Initial residual = 0.0259379, Final residual = 0.00130636, No Iterations 2
GAMG:  Solving for epsilon, Initial residual = 0.00235013, Final residual = 0.000218834, No Iterations 2
GAMG:  Solving for k, Initial residual = 0.0134365, Final residual = 0.00132512, No Iterations 2
ExecutionTime = 44.132 s  ClockTime = 44 s

Time = 47

GAMG:  Solving for Ux, Initial residual = 0.003396, Final residual = 0.000330573, No Iterations 2
GAMG:  Solving for Uy, Initial residual = 0.00295175, Final residual = 0.000289844, No Iterations 2
GAMG:  Solving for Uz, Initial residual = 0.03061, Final residual = 0.00199043, No Iterations 3
GAMG:  Solving for p, Initial residual = 0.00557192, Final residual = 0.000516762, No Iterations 3
time step continuity errors : sum local = 1.95788, global = -0.0425703, cumulative = -413.249
rho max/min : 0.545495 0.305434
GAMG:  Solving for h, Initial residual = 0.0250996, Final residual = 0.00124602, No Iterations 2
GAMG:  Solving for epsilon, Initial residual = 0.00226337, Final residual = 0.000207305, No Iterations 2
GAMG:  Solving for k, Initial residual = 0.0129052, Final residual = 0.00126188, No Iterations 2
ExecutionTime = 45.042 s  ClockTime = 45 s

Time = 48

GAMG:  Solving for Ux, Initial residual = 0.00320843, Final residual = 0.000316501, No Iterations 2
GAMG:  Solving for Uy, Initial residual = 0.00269283, Final residual = 0.000261732, No Iterations 2
GAMG:  Solving for Uz, Initial residual = 0.0279895, Final residual = 0.00277592, No Iterations 2
GAMG:  Solving for p, Initial residual = 0.00512635, Final residual = 0.000482998, No Iterations 3
time step continuity errors : sum local = 1.8314, global = -0.00856342, cumulative = -413.258
rho max/min : 0.545302 0.304489
GAMG:  Solving for h, Initial residual = 0.024203, Final residual = 0.00118149, No Iterations 2
GAMG:  Solving for epsilon, Initial residual = 0.00216094, Final residual = 0.000193018, No Iterations 2
GAMG:  Solving for k, Initial residual = 0.0123371, Final residual = 0.00118417, No Iterations 2
ExecutionTime = 45.952 s  ClockTime = 46 s

Time = 49

GAMG:  Solving for Ux, Initial residual = 0.00297736, Final residual = 0.000297239, No Iterations 2
GAMG:  Solving for Uy, Initial residual = 0.00243693, Final residual = 0.00023136, No Iterations 2
GAMG:  Solving for Uz, Initial residual = 0.0255424, Final residual = 0.00166004, No Iterations 3
GAMG:  Solving for p, Initial residual = 0.00469337, Final residual = 0.000398856, No Iterations 4
time step continuity errors : sum local = 1.63822, global = -0.0518822, cumulative = -413.31
rho max/min : 0.544801 0.30312
GAMG:  Solving for h, Initial residual = 0.0232344, Final residual = 0.00111386, No Iterations 2
GAMG:  Solving for epsilon, Initial residual = 0.0020825, Final residual = 0.000178456, No Iterations 2
GAMG:  Solving for k, Initial residual = 0.0118652, Final residual = 0.00109819, No Iterations 2
ExecutionTime = 46.874 s  ClockTime = 47 s

Time = 50

GAMG:  Solving for Ux, Initial residual = 0.0027874, Final residual = 0.000275623, No Iterations 2
GAMG:  Solving for Uy, Initial residual = 0.00224577, Final residual = 0.000206441, No Iterations 2
GAMG:  Solving for Uz, Initial residual = 0.0230785, Final residual = 0.00224108, No Iterations 2
GAMG:  Solving for p, Initial residual = 0.00419387, Final residual = 0.000353745, No Iterations 3
time step continuity errors : sum local = 1.34808, global = -0.0470152, cumulative = -413.357
rho max/min : 0.54472 0.302667
GAMG:  Solving for h, Initial residual = 0.0222494, Final residual = 0.00104444, No Iterations 2
GAMG:  Solving for epsilon, Initial residual = 0.00196646, Final residual = 0.000163228, No Iterations 2
GAMG:  Solving for k, Initial residual = 0.0112314, Final residual = 0.00101075, No Iterations 2
ExecutionTime = 47.772 s  ClockTime = 48 s

Time = 51

GAMG:  Solving for Ux, Initial residual = 0.00252842, Final residual = 0.000249368, No Iterations 2
GAMG:  Solving for Uy, Initial residual = 0.0019993, Final residual = 0.00017302, No Iterations 2
GAMG:  Solving for Uz, Initial residual = 0.020749, Final residual = 0.00203209, No Iterations 2
GAMG:  Solving for p, Initial residual = 0.00395798, Final residual = 0.000350392, No Iterations 4
time step continuity errors : sum local = 1.40676, global = -0.0152671, cumulative = -413.372
rho max/min : 0.544403 0.301713
GAMG:  Solving for h, Initial residual = 0.0212414, Final residual = 0.00210928, No Iterations 1
GAMG:  Solving for epsilon, Initial residual = 0.00187739, Final residual = 0.000149144, No Iterations 2
GAMG:  Solving for k, Initial residual = 0.0107283, Final residual = 0.000924437, No Iterations 2
ExecutionTime = 48.659 s  ClockTime = 49 s

Time = 52

GAMG:  Solving for Ux, Initial residual = 0.00226568, Final residual = 0.00022482, No Iterations 2
GAMG:  Solving for Uy, Initial residual = 0.00178032, Final residual = 0.000152702, No Iterations 2
GAMG:  Solving for Uz, Initial residual = 0.0185855, Final residual = 0.00180575, No Iterations 2
GAMG:  Solving for p, Initial residual = 0.00352311, Final residual = 0.00035202, No Iterations 3
time step continuity errors : sum local = 1.34276, global = 0.00921522, cumulative = -413.363
rho max/min : 0.544178 0.301247
GAMG:  Solving for h, Initial residual = 0.020267, Final residual = 0.000982441, No Iterations 2
GAMG:  Solving for epsilon, Initial residual = 0.00179367, Final residual = 0.000136618, No Iterations 2
GAMG:  Solving for k, Initial residual = 0.0102119, Final residual = 0.00084205, No Iterations 2
ExecutionTime = 49.543 s  ClockTime = 49 s

Time = 53

GAMG:  Solving for Ux, Initial residual = 0.00202176, Final residual = 0.000198411, No Iterations 2
GAMG:  Solving for Uy, Initial residual = 0.0015772, Final residual = 0.000126137, No Iterations 2
GAMG:  Solving for Uz, Initial residual = 0.0164938, Final residual = 0.00157945, No Iterations 2
GAMG:  Solving for p, Initial residual = 0.00326959, Final residual = 0.000302187, No Iterations 4
time step continuity errors : sum local = 1.22525, global = -0.0302468, cumulative = -413.393
rho max/min : 0.543823 0.3005
GAMG:  Solving for h, Initial residual = 0.0192685, Final residual = 0.000893957, No Iterations 2
GAMG:  Solving for epsilon, Initial residual = 0.00172253, Final residual = 0.00012578, No Iterations 2
GAMG:  Solving for k, Initial residual = 0.00976659, Final residual = 0.000766103, No Iterations 2
ExecutionTime = 50.447 s  ClockTime = 50 s

Time = 54

GAMG:  Solving for Ux, Initial residual = 0.00180631, Final residual = 0.000175065, No Iterations 2
GAMG:  Solving for Uy, Initial residual = 0.00141539, Final residual = 0.000111345, No Iterations 2
GAMG:  Solving for Uz, Initial residual = 0.0146628, Final residual = 0.0013738, No Iterations 2
GAMG:  Solving for p, Initial residual = 0.0029083, Final residual = 0.000221572, No Iterations 4
time step continuity errors : sum local = 0.892593, global = -0.0259688, cumulative = -413.419
rho max/min : 0.543656 0.300163
GAMG:  Solving for h, Initial residual = 0.0183121, Final residual = 0.00178482, No Iterations 1
GAMG:  Solving for epsilon, Initial residual = 0.0016477, Final residual = 0.000116103, No Iterations 2
GAMG:  Solving for k, Initial residual = 0.00930544, Final residual = 0.000697182, No Iterations 2
ExecutionTime = 51.338 s  ClockTime = 51 s

Time = 55

GAMG:  Solving for Ux, Initial residual = 0.00159549, Final residual = 0.000151728, No Iterations 2
GAMG:  Solving for Uy, Initial residual = 0.0012681, Final residual = 9.22959e-005, No Iterations 2
GAMG:  Solving for Uz, Initial residual = 0.012982, Final residual = 0.00119033, No Iterations 2
GAMG:  Solving for p, Initial residual = 0.00269051, Final residual = 0.000233651, No Iterations 4
time step continuity errors : sum local = 0.937315, global = -0.0282746, cumulative = -413.447
rho max/min : 0.543467 0.299797
GAMG:  Solving for h, Initial residual = 0.0174241, Final residual = 0.000811377, No Iterations 2
GAMG:  Solving for epsilon, Initial residual = 0.00158581, Final residual = 0.000107687, No Iterations 2
GAMG:  Solving for k, Initial residual = 0.00892233, Final residual = 0.000634523, No Iterations 2
ExecutionTime = 52.237 s  ClockTime = 52 s

Time = 56

GAMG:  Solving for Ux, Initial residual = 0.00139476, Final residual = 0.000130853, No Iterations 2
GAMG:  Solving for Uy, Initial residual = 0.00112823, Final residual = 7.89754e-005, No Iterations 2
GAMG:  Solving for Uz, Initial residual = 0.0114889, Final residual = 0.0010315, No Iterations 2
GAMG:  Solving for p, Initial residual = 0.00246616, Final residual = 0.000227277, No Iterations 4
time step continuity errors : sum local = 0.910106, global = -0.031808, cumulative = -413.479
rho max/min : 0.543284 0.299495
GAMG:  Solving for h, Initial residual = 0.0165323, Final residual = 0.00160812, No Iterations 1
GAMG:  Solving for epsilon, Initial residual = 0.0015296, Final residual = 0.000100275, No Iterations 2
GAMG:  Solving for k, Initial residual = 0.00856482, Final residual = 0.000578247, No Iterations 2
ExecutionTime = 53.121 s  ClockTime = 53 s

Time = 57

GAMG:  Solving for Ux, Initial residual = 0.00121715, Final residual = 0.000112407, No Iterations 2
GAMG:  Solving for Uy, Initial residual = 0.00100975, Final residual = 6.75238e-005, No Iterations 2
GAMG:  Solving for Uz, Initial residual = 0.0102512, Final residual = 0.000901184, No Iterations 2
GAMG:  Solving for p, Initial residual = 0.00225738, Final residual = 0.000207216, No Iterations 4
time step continuity errors : sum local = 0.829897, global = -0.0323148, cumulative = -413.512
rho max/min : 0.543132 0.299272
GAMG:  Solving for h, Initial residual = 0.0157101, Final residual = 0.00071978, No Iterations 2
GAMG:  Solving for epsilon, Initial residual = 0.0014753, Final residual = 9.36811e-005, No Iterations 2
GAMG:  Solving for k, Initial residual = 0.00822267, Final residual = 0.000527844, No Iterations 2
ExecutionTime = 54.027 s  ClockTime = 54 s

Time = 58

GAMG:  Solving for Ux, Initial residual = 0.0010634, Final residual = 9.61064e-005, No Iterations 2
GAMG:  Solving for Uy, Initial residual = 0.000908177, Final residual = 5.81723e-005, No Iterations 2
GAMG:  Solving for Uz, Initial residual = 0.00918774, Final residual = 0.000793297, No Iterations 2
GAMG:  Solving for p, Initial residual = 0.00208169, Final residual = 0.000192897, No Iterations 4
time step continuity errors : sum local = 0.771756, global = -0.0315213, cumulative = -413.543
rho max/min : 0.543008 0.299109
GAMG:  Solving for h, Initial residual = 0.0148891, Final residual = 0.00142626, No Iterations 1
GAMG:  Solving for epsilon, Initial residual = 0.00142104, Final residual = 8.77941e-005, No Iterations 2
GAMG:  Solving for k, Initial residual = 0.00789027, Final residual = 0.000482983, No Iterations 2
ExecutionTime = 54.922 s  ClockTime = 55 s

Time = 59

GAMG:  Solving for Ux, Initial residual = 0.000932261, Final residual = 8.2166e-005, No Iterations 2
GAMG:  Solving for Uy, Initial residual = 0.000818762, Final residual = 5.06899e-005, No Iterations 2
GAMG:  Solving for Uz, Initial residual = 0.00832598, Final residual = 0.000709008, No Iterations 2
GAMG:  Solving for p, Initial residual = 0.00192654, Final residual = 0.000186442, No Iterations 4
time step continuity errors : sum local = 0.739103, global = -0.0285105, cumulative = -413.572
rho max/min : 0.542921 0.299011
GAMG:  Solving for h, Initial residual = 0.0141365, Final residual = 0.00141149, No Iterations 1
GAMG:  Solving for epsilon, Initial residual = 0.00136623, Final residual = 8.25108e-005, No Iterations 2
GAMG:  Solving for k, Initial residual = 0.00755349, Final residual = 0.000442771, No Iterations 2
ExecutionTime = 55.81 s  ClockTime = 56 s

Time = 60

GAMG:  Solving for Ux, Initial residual = 0.000820923, Final residual = 7.03468e-005, No Iterations 2
GAMG:  Solving for Uy, Initial residual = 0.000737604, Final residual = 4.46568e-005, No Iterations 2
GAMG:  Solving for Uz, Initial residual = 0.00757682, Final residual = 0.000640988, No Iterations 2
GAMG:  Solving for p, Initial residual = 0.00178326, Final residual = 0.000173437, No Iterations 4
time step continuity errors : sum local = 0.689182, global = -0.0227731, cumulative = -413.594
rho max/min : 0.542836 0.298924
GAMG:  Solving for h, Initial residual = 0.0134129, Final residual = 0.000619546, No Iterations 2
GAMG:  Solving for epsilon, Initial residual = 0.00131445, Final residual = 7.78893e-005, No Iterations 2
GAMG:  Solving for k, Initial residual = 0.00722599, Final residual = 0.000406105, No Iterations 2
ExecutionTime = 56.716 s  ClockTime = 57 s

Time = 61

GAMG:  Solving for Ux, Initial residual = 0.000734603, Final residual = 6.06182e-005, No Iterations 2
GAMG:  Solving for Uy, Initial residual = 0.000665384, Final residual = 4.00153e-005, No Iterations 2
GAMG:  Solving for Uz, Initial residual = 0.00694917, Final residual = 0.000585891, No Iterations 2
GAMG:  Solving for p, Initial residual = 0.0016445, Final residual = 0.000159708, No Iterations 4
time step continuity errors : sum local = 0.634462, global = -0.0185229, cumulative = -413.613
rho max/min : 0.542772 0.298869
GAMG:  Solving for h, Initial residual = 0.0126851, Final residual = 0.00122521, No Iterations 1
GAMG:  Solving for epsilon, Initial residual = 0.00126296, Final residual = 7.38383e-005, No Iterations 2
GAMG:  Solving for k, Initial residual = 0.00689903, Final residual = 0.000685936, No Iterations 1
ExecutionTime = 57.607 s  ClockTime = 57 s

Time = 62

GAMG:  Solving for Ux, Initial residual = 0.000669153, Final residual = 5.23527e-005, No Iterations 2
GAMG:  Solving for Uy, Initial residual = 0.000602368, Final residual = 3.61347e-005, No Iterations 2
GAMG:  Solving for Uz, Initial residual = 0.00644309, Final residual = 0.000540987, No Iterations 2
GAMG:  Solving for p, Initial residual = 0.00152975, Final residual = 0.000125062, No Iterations 5
time step continuity errors : sum local = 0.520277, global = -0.0160989, cumulative = -413.629
rho max/min : 0.542702 0.298807
GAMG:  Solving for h, Initial residual = 0.012018, Final residual = 0.000543711, No Iterations 2
GAMG:  Solving for epsilon, Initial residual = 0.00120988, Final residual = 6.93464e-005, No Iterations 2
GAMG:  Solving for k, Initial residual = 0.00659001, Final residual = 0.000381205, No Iterations 2
ExecutionTime = 58.531 s  ClockTime = 58 s

Time = 63

GAMG:  Solving for Ux, Initial residual = 0.000628123, Final residual = 4.60926e-005, No Iterations 2
GAMG:  Solving for Uy, Initial residual = 0.000544408, Final residual = 3.34083e-005, No Iterations 2
GAMG:  Solving for Uz, Initial residual = 0.00597969, Final residual = 0.000504504, No Iterations 2
GAMG:  Solving for p, Initial residual = 0.00139742, Final residual = 0.000132218, No Iterations 4
time step continuity errors : sum local = 0.530208, global = -0.00190993, cumulative = -413.631
rho max/min : 0.542701 0.298863
GAMG:  Solving for h, Initial residual = 0.0113558, Final residual = 0.00108444, No Iterations 1
GAMG:  Solving for epsilon, Initial residual = 0.00115991, Final residual = 6.62496e-005, No Iterations 2
GAMG:  Solving for k, Initial residual = 0.00627645, Final residual = 0.00034028, No Iterations 2
ExecutionTime = 59.42 s  ClockTime = 59 s

Time = 64

GAMG:  Solving for Ux, Initial residual = 0.000577935, Final residual = 4.08601e-005, No Iterations 2
GAMG:  Solving for Uy, Initial residual = 0.000494323, Final residual = 2.95443e-005, No Iterations 2
GAMG:  Solving for Uz, Initial residual = 0.00551941, Final residual = 0.00046668, No Iterations 2
GAMG:  Solving for p, Initial residual = 0.00133571, Final residual = 0.000128571, No Iterations 5
time step continuity errors : sum local = 0.526802, global = -0.00895218, cumulative = -413.64
rho max/min : 0.54266 0.298825
GAMG:  Solving for h, Initial residual = 0.0107533, Final residual = 0.000485366, No Iterations 2
GAMG:  Solving for epsilon, Initial residual = 0.00111386, Final residual = 6.36697e-005, No Iterations 2
GAMG:  Solving for k, Initial residual = 0.00598224, Final residual = 0.000578123, No Iterations 1
ExecutionTime = 60.324 s  ClockTime = 60 s

Time = 65

GAMG:  Solving for Ux, Initial residual = 0.000562718, Final residual = 3.65566e-005, No Iterations 2
GAMG:  Solving for Uy, Initial residual = 0.000442406, Final residual = 2.78572e-005, No Iterations 2
GAMG:  Solving for Uz, Initial residual = 0.00512673, Final residual = 0.000434623, No Iterations 2
GAMG:  Solving for p, Initial residual = 0.00121371, Final residual = 0.000102428, No Iterations 5
time step continuity errors : sum local = 0.42034, global = -0.00522845, cumulative = -413.645
rho max/min : 0.54263 0.29885
GAMG:  Solving for h, Initial residual = 0.0101498, Final residual = 0.000973219, No Iterations 1
GAMG:  Solving for epsilon, Initial residual = 0.00106808, Final residual = 6.081e-005, No Iterations 2
GAMG:  Solving for k, Initial residual = 0.00570702, Final residual = 0.000314312, No Iterations 2
ExecutionTime = 61.236 s  ClockTime = 61 s

Time = 66

GAMG:  Solving for Ux, Initial residual = 0.000540454, Final residual = 5.39366e-005, No Iterations 1
GAMG:  Solving for Uy, Initial residual = 0.000401856, Final residual = 2.5283e-005, No Iterations 2
GAMG:  Solving for Uz, Initial residual = 0.00473884, Final residual = 0.000406039, No Iterations 2
GAMG:  Solving for p, Initial residual = 0.00113366, Final residual = 0.000107807, No Iterations 5
time step continuity errors : sum local = 0.439387, global = 0.0017527, cumulative = -413.643
rho max/min : 0.542646 0.298918
GAMG:  Solving for h, Initial residual = 0.00960367, Final residual = 0.00043737, No Iterations 2
GAMG:  Solving for epsilon, Initial residual = 0.00102201, Final residual = 5.85761e-005, No Iterations 2
GAMG:  Solving for k, Initial residual = 0.00542831, Final residual = 0.000530767, No Iterations 1
ExecutionTime = 62.126 s  ClockTime = 62 s

Time = 67

GAMG:  Solving for Ux, Initial residual = 0.000517449, Final residual = 3.24624e-005, No Iterations 2
GAMG:  Solving for Uy, Initial residual = 0.000363613, Final residual = 2.30286e-005, No Iterations 2
GAMG:  Solving for Uz, Initial residual = 0.004324, Final residual = 0.000374817, No Iterations 2
GAMG:  Solving for p, Initial residual = 0.00106059, Final residual = 8.97718e-005, No Iterations 6
time step continuity errors : sum local = 0.376915, global = -0.00331139, cumulative = -413.647
rho max/min : 0.542623 0.298929
GAMG:  Solving for h, Initial residual = 0.00906854, Final residual = 0.000879458, No Iterations 1
GAMG:  Solving for epsilon, Initial residual = 0.000979678, Final residual = 5.63963e-005, No Iterations 2
GAMG:  Solving for k, Initial residual = 0.0051829, Final residual = 0.000284446, No Iterations 2
ExecutionTime = 63.043 s  ClockTime = 63 s

Time = 68

GAMG:  Solving for Ux, Initial residual = 0.00051896, Final residual = 4.75972e-005, No Iterations 1
GAMG:  Solving for Uy, Initial residual = 0.000328445, Final residual = 2.15381e-005, No Iterations 2
GAMG:  Solving for Uz, Initial residual = 0.00400391, Final residual = 0.000352272, No Iterations 2
GAMG:  Solving for p, Initial residual = 0.000974233, Final residual = 9.17782e-005, No Iterations 5
time step continuity errors : sum local = 0.371743, global = 0.00493295, cumulative = -413.642
rho max/min : 0.542639 0.299005
GAMG:  Solving for h, Initial residual = 0.00857974, Final residual = 0.000395135, No Iterations 2
GAMG:  Solving for epsilon, Initial residual = 0.000938233, Final residual = 5.45419e-005, No Iterations 2
GAMG:  Solving for k, Initial residual = 0.00493311, Final residual = 0.000480287, No Iterations 1
ExecutionTime = 63.935 s  ClockTime = 64 s

Time = 69

GAMG:  Solving for Ux, Initial residual = 0.000489998, Final residual = 4.6377e-005, No Iterations 1
GAMG:  Solving for Uy, Initial residual = 0.000301213, Final residual = 1.94924e-005, No Iterations 2
GAMG:  Solving for Uz, Initial residual = 0.00362103, Final residual = 0.000325075, No Iterations 2
GAMG:  Solving for p, Initial residual = 0.000922692, Final residual = 9.11932e-005, No Iterations 6
time step continuity errors : sum local = 0.378119, global = -0.00305671, cumulative = -413.645
rho max/min : 0.542664 0.299077
GAMG:  Solving for h, Initial residual = 0.0081161, Final residual = 0.000795609, No Iterations 1
GAMG:  Solving for epsilon, Initial residual = 0.000894264, Final residual = 5.26633e-005, No Iterations 2
GAMG:  Solving for k, Initial residual = 0.00469645, Final residual = 0.000256361, No Iterations 2
ExecutionTime = 64.846 s  ClockTime = 65 s

Time = 70

GAMG:  Solving for Ux, Initial residual = 0.000498576, Final residual = 4.46393e-005, No Iterations 1
GAMG:  Solving for Uy, Initial residual = 0.000272907, Final residual = 1.81498e-005, No Iterations 2
GAMG:  Solving for Uz, Initial residual = 0.00334466, Final residual = 0.000306486, No Iterations 2
GAMG:  Solving for p, Initial residual = 0.000843826, Final residual = 7.96806e-005, No Iterations 5
time step continuity errors : sum local = 0.318967, global = -0.00435299, cumulative = -413.649
rho max/min : 0.542653 0.299111
GAMG:  Solving for h, Initial residual = 0.00769377, Final residual = 0.000356244, No Iterations 2
GAMG:  Solving for epsilon, Initial residual = 0.000857914, Final residual = 5.09703e-005, No Iterations 2
GAMG:  Solving for k, Initial residual = 0.00448014, Final residual = 0.0004335, No Iterations 1
ExecutionTime = 65.737 s  ClockTime = 66 s

Time = 71

GAMG:  Solving for Ux, Initial residual = 0.000478261, Final residual = 4.24966e-005, No Iterations 1
GAMG:  Solving for Uy, Initial residual = 0.000254911, Final residual = 1.67295e-005, No Iterations 2
GAMG:  Solving for Uz, Initial residual = 0.00303657, Final residual = 0.000284512, No Iterations 2
GAMG:  Solving for p, Initial residual = 0.00079532, Final residual = 7.37076e-005, No Iterations 7
time step continuity errors : sum local = 0.3175, global = -0.00144454, cumulative = -413.651
rho max/min : 0.542704 0.299244
GAMG:  Solving for h, Initial residual = 0.00730165, Final residual = 0.000716947, No Iterations 1
GAMG:  Solving for epsilon, Initial residual = 0.000811278, Final residual = 4.90081e-005, No Iterations 2
GAMG:  Solving for k, Initial residual = 0.00424704, Final residual = 0.000231288, No Iterations 2
ExecutionTime = 66.652 s  ClockTime = 67 s

Time = 72

GAMG:  Solving for Ux, Initial residual = 0.000498618, Final residual = 4.01715e-005, No Iterations 1
GAMG:  Solving for Uy, Initial residual = 0.000233336, Final residual = 1.55265e-005, No Iterations 2
GAMG:  Solving for Uz, Initial residual = 0.00282672, Final residual = 0.000268834, No Iterations 2
GAMG:  Solving for p, Initial residual = 0.000732256, Final residual = 6.56205e-005, No Iterations 5
time step continuity errors : sum local = 0.256189, global = 0.00783001, cumulative = -413.643
rho max/min : 0.542688 0.29927
GAMG:  Solving for h, Initial residual = 0.00694394, Final residual = 0.000319365, No Iterations 2
GAMG:  Solving for epsilon, Initial residual = 0.000778702, Final residual = 4.73213e-005, No Iterations 2
GAMG:  Solving for k, Initial residual = 0.00405782, Final residual = 0.000390895, No Iterations 1
ExecutionTime = 67.542 s  ClockTime = 67 s

Time = 73

GAMG:  Solving for Ux, Initial residual = 0.000462513, Final residual = 3.78612e-005, No Iterations 1
GAMG:  Solving for Uy, Initial residual = 0.000224112, Final residual = 1.44698e-005, No Iterations 2
GAMG:  Solving for Uz, Initial residual = 0.00257886, Final residual = 0.000249768, No Iterations 2
GAMG:  Solving for p, Initial residual = 0.000693948, Final residual = 6.4597e-005, No Iterations 8
time step continuity errors : sum local = 0.284564, global = -0.000749712, cumulative = -413.643
rho max/min : 0.54275 0.299436
GAMG:  Solving for h, Initial residual = 0.00662481, Final residual = 0.000641581, No Iterations 1
GAMG:  Solving for epsilon, Initial residual = 0.000730696, Final residual = 4.52264e-005, No Iterations 2
GAMG:  Solving for k, Initial residual = 0.00383256, Final residual = 0.000208948, No Iterations 2
ExecutionTime = 68.477 s  ClockTime = 68 s

Time = 74

GAMG:  Solving for Ux, Initial residual = 0.000493503, Final residual = 3.55863e-005, No Iterations 1
GAMG:  Solving for Uy, Initial residual = 0.00020879, Final residual = 1.34628e-005, No Iterations 2
GAMG:  Solving for Uz, Initial residual = 0.00241501, Final residual = 0.00023608, No Iterations 2
GAMG:  Solving for p, Initial residual = 0.000637885, Final residual = 5.75934e-005, No Iterations 5
time step continuity errors : sum local = 0.221691, global = 0.00326817, cumulative = -413.64
rho max/min : 0.542723 0.29945
GAMG:  Solving for h, Initial residual = 0.00632861, Final residual = 0.000284214, No Iterations 2
GAMG:  Solving for epsilon, Initial residual = 0.000701618, Final residual = 4.354e-005, No Iterations 2
GAMG:  Solving for k, Initial residual = 0.00366489, Final residual = 0.000352694, No Iterations 1
ExecutionTime = 69.361 s  ClockTime = 69 s

Time = 75

GAMG:  Solving for Ux, Initial residual = 0.000443156, Final residual = 3.33641e-005, No Iterations 1
GAMG:  Solving for Uy, Initial residual = 0.000203711, Final residual = 1.26707e-005, No Iterations 2
GAMG:  Solving for Uz, Initial residual = 0.00221194, Final residual = 0.000219775, No Iterations 2
GAMG:  Solving for p, Initial residual = 0.000605852, Final residual = 5.77396e-005, No Iterations 9
time step continuity errors : sum local = 0.262905, global = 0.00217006, cumulative = -413.638
rho max/min : 0.542797 0.299654
GAMG:  Solving for h, Initial residual = 0.00607025, Final residual = 0.000569661, No Iterations 1
GAMG:  Solving for epsilon, Initial residual = 0.000650939, Final residual = 4.12445e-005, No Iterations 2
GAMG:  Solving for k, Initial residual = 0.00344167, Final residual = 0.000189484, No Iterations 2
ExecutionTime = 70.304 s  ClockTime = 70 s

Time = 76

GAMG:  Solving for Ux, Initial residual = 0.000479704, Final residual = 3.13852e-005, No Iterations 1
GAMG:  Solving for Uy, Initial residual = 0.000194287, Final residual = 1.19088e-005, No Iterations 2
GAMG:  Solving for Uz, Initial residual = 0.00208054, Final residual = 0.000206961, No Iterations 2
GAMG:  Solving for p, Initial residual = 0.000563708, Final residual = 5.23444e-005, No Iterations 6
time step continuity errors : sum local = 0.195834, global = -0.0107863, cumulative = -413.649
rho max/min : 0.542779 0.299679
GAMG:  Solving for h, Initial residual = 0.00581763, Final residual = 0.000563387, No Iterations 1
GAMG:  Solving for epsilon, Initial residual = 0.000624524, Final residual = 3.9587e-005, No Iterations 2
GAMG:  Solving for k, Initial residual = 0.00329163, Final residual = 0.000318368, No Iterations 1
ExecutionTime = 71.192 s  ClockTime = 71 s

Time = 77

GAMG:  Solving for Ux, Initial residual = 0.000418976, Final residual = 2.92833e-005, No Iterations 1
GAMG:  Solving for Uy, Initial residual = 0.000186765, Final residual = 1.13049e-005, No Iterations 2
GAMG:  Solving for Uz, Initial residual = 0.00192828, Final residual = 0.000192757, No Iterations 2
GAMG:  Solving for p, Initial residual = 0.000522221, Final residual = 5.03363e-005, No Iterations 8
time step continuity errors : sum local = 0.23881, global = -0.00163519, cumulative = -413.65
rho max/min : 0.542861 0.29989
GAMG:  Solving for h, Initial residual = 0.00560547, Final residual = 0.000549845, No Iterations 1
GAMG:  Solving for epsilon, Initial residual = 0.000575189, Final residual = 3.73741e-005, No Iterations 2
GAMG:  Solving for k, Initial residual = 0.00307696, Final residual = 0.000170862, No Iterations 2
ExecutionTime = 72.121 s  ClockTime = 72 s

Time = 78

GAMG:  Solving for Ux, Initial residual = 0.000434596, Final residual = 2.75556e-005, No Iterations 1
GAMG:  Solving for Uy, Initial residual = 0.00018189, Final residual = 1.07605e-005, No Iterations 2
GAMG:  Solving for Uz, Initial residual = 0.00180773, Final residual = 0.000179099, No Iterations 2
GAMG:  Solving for p, Initial residual = 0.000488731, Final residual = 4.80044e-005, No Iterations 4
time step continuity errors : sum local = 0.19269, global = 0.0132184, cumulative = -413.637
rho max/min : 0.542804 0.299869
GAMG:  Solving for h, Initial residual = 0.00538114, Final residual = 0.000531364, No Iterations 1
GAMG:  Solving for epsilon, Initial residual = 0.000550742, Final residual = 3.56465e-005, No Iterations 2
GAMG:  Solving for k, Initial residual = 0.00293977, Final residual = 0.000288063, No Iterations 1
ExecutionTime = 72.994 s  ClockTime = 73 s

Time = 79

GAMG:  Solving for Ux, Initial residual = 0.000382934, Final residual = 2.62566e-005, No Iterations 1
GAMG:  Solving for Uy, Initial residual = 0.000172389, Final residual = 1.04796e-005, No Iterations 2
GAMG:  Solving for Uz, Initial residual = 0.00171005, Final residual = 0.000168292, No Iterations 2
GAMG:  Solving for p, Initial residual = 0.000463984, Final residual = 4.49374e-005, No Iterations 10
time step continuity errors : sum local = 0.231858, global = 0.00792007, cumulative = -413.629
rho max/min : 0.542909 0.300141
GAMG:  Solving for h, Initial residual = 0.005189, Final residual = 0.000510158, No Iterations 1
GAMG:  Solving for epsilon, Initial residual = 0.000501262, Final residual = 3.34001e-005, No Iterations 2
GAMG:  Solving for k, Initial residual = 0.00273042, Final residual = 0.000154507, No Iterations 2
ExecutionTime = 73.972 s  ClockTime = 74 s

Time = 80

GAMG:  Solving for Ux, Initial residual = 0.000407694, Final residual = 2.47262e-005, No Iterations 1
GAMG:  Solving for Uy, Initial residual = 0.000175106, Final residual = 1.00108e-005, No Iterations 2
GAMG:  Solving for Uz, Initial residual = 0.00160704, Final residual = 0.000155535, No Iterations 2
GAMG:  Solving for p, Initial residual = 0.000445003, Final residual = 4.19932e-005, No Iterations 8
time step continuity errors : sum local = 0.156633, global = -0.0173231, cumulative = -413.647
rho max/min : 0.542925 0.300193
GAMG:  Solving for h, Initial residual = 0.00498511, Final residual = 0.000487442, No Iterations 1
GAMG:  Solving for epsilon, Initial residual = 0.000477517, Final residual = 3.18435e-005, No Iterations 2
GAMG:  Solving for k, Initial residual = 0.00260535, Final residual = 0.000258147, No Iterations 1
ExecutionTime = 74.896 s  ClockTime = 75 s

Time = 81

GAMG:  Solving for Ux, Initial residual = 0.000343017, Final residual = 2.31748e-005, No Iterations 1
GAMG:  Solving for Uy, Initial residual = 0.000156155, Final residual = 9.3612e-006, No Iterations 2
GAMG:  Solving for Uz, Initial residual = 0.00151356, Final residual = 0.000145197, No Iterations 2
GAMG:  Solving for p, Initial residual = 0.000392379, Final residual = 3.83317e-005, No Iterations 5
time step continuity errors : sum local = 0.141162, global = 0.00450053, cumulative = -413.642
rho max/min : 0.542931 0.300267
GAMG:  Solving for h, Initial residual = 0.00479397, Final residual = 0.000464476, No Iterations 1
GAMG:  Solving for epsilon, Initial residual = 0.000443134, Final residual = 3.02495e-005, No Iterations 2
GAMG:  Solving for k, Initial residual = 0.0024379, Final residual = 0.000137176, No Iterations 2
ExecutionTime = 75.807 s  ClockTime = 76 s

Time = 82

GAMG:  Solving for Ux, Initial residual = 0.000316491, Final residual = 2.26338e-005, No Iterations 1
GAMG:  Solving for Uy, Initial residual = 0.000151683, Final residual = 9.0869e-006, No Iterations 2
GAMG:  Solving for Uz, Initial residual = 0.00143346, Final residual = 0.000134537, No Iterations 2
GAMG:  Solving for p, Initial residual = 0.000372046, Final residual = 3.59081e-005, No Iterations 6
time step continuity errors : sum local = 0.138363, global = -0.0022784, cumulative = -413.644
rho max/min : 0.542955 0.30038
GAMG:  Solving for h, Initial residual = 0.00460646, Final residual = 0.000441256, No Iterations 1
GAMG:  Solving for epsilon, Initial residual = 0.000410203, Final residual = 2.8392e-005, No Iterations 2
GAMG:  Solving for k, Initial residual = 0.00228501, Final residual = 0.000121372, No Iterations 2
ExecutionTime = 76.714 s  ClockTime = 77 s

Time = 83

GAMG:  Solving for Ux, Initial residual = 0.000293982, Final residual = 2.16629e-005, No Iterations 1
GAMG:  Solving for Uy, Initial residual = 0.000142977, Final residual = 8.73524e-006, No Iterations 2
GAMG:  Solving for Uz, Initial residual = 0.00134455, Final residual = 0.000124545, No Iterations 2
GAMG:  Solving for p, Initial residual = 0.000342088, Final residual = 3.1248e-005, No Iterations 4
time step continuity errors : sum local = 0.115421, global = 0.00886679, cumulative = -413.636
rho max/min : 0.542939 0.300415
GAMG:  Solving for h, Initial residual = 0.00442627, Final residual = 0.000419047, No Iterations 1
GAMG:  Solving for epsilon, Initial residual = 0.000383665, Final residual = 2.68281e-005, No Iterations 2
GAMG:  Solving for k, Initial residual = 0.00214989, Final residual = 0.000211251, No Iterations 1
ExecutionTime = 77.585 s  ClockTime = 77 s

Time = 84

GAMG:  Solving for Ux, Initial residual = 0.000263093, Final residual = 2.07597e-005, No Iterations 1
GAMG:  Solving for Uy, Initial residual = 0.000132571, Final residual = 8.38175e-006, No Iterations 2
GAMG:  Solving for Uz, Initial residual = 0.00125613, Final residual = 0.000115617, No Iterations 2
GAMG:  Solving for p, Initial residual = 0.00032872, Final residual = 3.26044e-005, No Iterations 8
time step continuity errors : sum local = 0.146568, global = -0.00189033, cumulative = -413.637
rho max/min : 0.543003 0.300581
GAMG:  Solving for h, Initial residual = 0.00425236, Final residual = 0.000397451, No Iterations 1
GAMG:  Solving for epsilon, Initial residual = 0.000352738, Final residual = 2.52335e-005, No Iterations 2
GAMG:  Solving for k, Initial residual = 0.00200382, Final residual = 0.000112746, No Iterations 2
ExecutionTime = 78.8 s  ClockTime = 79 s

Time = 85

GAMG:  Solving for Ux, Initial residual = 0.000254471, Final residual = 2.02441e-005, No Iterations 1
GAMG:  Solving for Uy, Initial residual = 0.000136311, Final residual = 8.24615e-006, No Iterations 2
GAMG:  Solving for Uz, Initial residual = 0.00117811, Final residual = 0.000106962, No Iterations 2
GAMG:  Solving for p, Initial residual = 0.000302237, Final residual = 3.00567e-005, No Iterations 5
time step continuity errors : sum local = 0.128721, global = 0.00183456, cumulative = -413.636
rho max/min : 0.542951 0.300542
GAMG:  Solving for h, Initial residual = 0.00408667, Final residual = 0.000377306, No Iterations 1
GAMG:  Solving for epsilon, Initial residual = 0.000332354, Final residual = 2.38146e-005, No Iterations 2
GAMG:  Solving for k, Initial residual = 0.00189703, Final residual = 0.00010011, No Iterations 2
ExecutionTime = 79.873 s  ClockTime = 80 s

Time = 86

GAMG:  Solving for Ux, Initial residual = 0.000213495, Final residual = 1.92793e-005, No Iterations 1
GAMG:  Solving for Uy, Initial residual = 0.000124776, Final residual = 7.8743e-006, No Iterations 2
GAMG:  Solving for Uz, Initial residual = 0.00110535, Final residual = 9.88279e-005, No Iterations 2
GAMG:  Solving for p, Initial residual = 0.000292921, Final residual = 2.61094e-005, No Iterations 10
time step continuity errors : sum local = 0.139222, global = 0.000403296, cumulative = -413.635
rho max/min : 0.543035 0.300731
GAMG:  Solving for h, Initial residual = 0.00391719, Final residual = 0.000358076, No Iterations 1
GAMG:  Solving for epsilon, Initial residual = 0.000302243, Final residual = 2.23983e-005, No Iterations 2
GAMG:  Solving for k, Initial residual = 0.00174862, Final residual = 9.19186e-005, No Iterations 2
ExecutionTime = 80.839 s  ClockTime = 81 s

Time = 87

GAMG:  Solving for Ux, Initial residual = 0.000212593, Final residual = 1.89979e-005, No Iterations 1
GAMG:  Solving for Uy, Initial residual = 0.000129741, Final residual = 7.90373e-006, No Iterations 2
GAMG:  Solving for Uz, Initial residual = 0.00102502, Final residual = 9.11594e-005, No Iterations 2
GAMG:  Solving for p, Initial residual = 0.000274452, Final residual = 2.67499e-005, No Iterations 10
time step continuity errors : sum local = 0.106076, global = -0.0138688, cumulative = -413.649
rho max/min : 0.543033 0.300723
GAMG:  Solving for h, Initial residual = 0.00375527, Final residual = 0.000340415, No Iterations 1
GAMG:  Solving for epsilon, Initial residual = 0.000285109, Final residual = 2.1226e-005, No Iterations 2
GAMG:  Solving for k, Initial residual = 0.001658, Final residual = 0.000160106, No Iterations 1
ExecutionTime = 81.794 s  ClockTime = 82 s

Time = 88

GAMG:  Solving for Ux, Initial residual = 0.000174146, Final residual = 1.04517e-005, No Iterations 2
GAMG:  Solving for Uy, Initial residual = 0.000113532, Final residual = 7.04896e-006, No Iterations 2
GAMG:  Solving for Uz, Initial residual = 0.000960434, Final residual = 8.49693e-005, No Iterations 2
[...]
GAMG:  Solving for Uy, Initial residual = 3.55814e-007, Final residual = 3.43154e-008, No Iterations 2
GAMG:  Solving for Uz, Initial residual = 7.16027e-006, Final residual = 5.62746e-007, No Iterations 2
GAMG:  Solving for p, Initial residual = 4.71153e-006, Final residual = 4.34945e-007, No Iterations 2
time step continuity errors : sum local = 0.00160053, global = 3.59279e-006, cumulative = -413.682
rho max/min : 0.542419 0.298488
GAMG:  Solving for h, Initial residual = 4.85429e-007, Final residual = 2.65781e-008, No Iterations 2
GAMG:  Solving for epsilon, Initial residual = 4.75801e-007, Final residual = 2.46985e-008, No Iterations 3
GAMG:  Solving for k, Initial residual = 8.49176e-007, Final residual = 5.20324e-008, No Iterations 3
ExecutionTime = 481.407 s  ClockTime = 481 s

Time = 480

GAMG:  Solving for Ux, Initial residual = 4.55869e-007, Final residual = 2.92606e-008, No Iterations 3
GAMG:  Solving for Uy, Initial residual = 3.60985e-007, Final residual = 3.41132e-008, No Iterations 2
GAMG:  Solving for Uz, Initial residual = 7.05355e-006, Final residual = 5.54365e-007, No Iterations 2
GAMG:  Solving for p, Initial residual = 4.88075e-006, Final residual = 4.41798e-007, No Iterations 2
time step continuity errors : sum local = 0.00162435, global = 1.57879e-005, cumulative = -413.682
rho max/min : 0.542419 0.298488
GAMG:  Solving for h, Initial residual = 4.90471e-007, Final residual = 2.64017e-008, No Iterations 2
GAMG:  Solving for epsilon, Initial residual = 4.73236e-007, Final residual = 2.46611e-008, No Iterations 3
GAMG:  Solving for k, Initial residual = 8.43515e-007, Final residual = 5.18557e-008, No Iterations 3
ExecutionTime = 482.436 s  ClockTime = 482 s

Time = 481

GAMG:  Solving for Ux, Initial residual = 4.58619e-007, Final residual = 2.9211e-008, No Iterations 3
GAMG:  Solving for Uy, Initial residual = 3.5392e-007, Final residual = 3.42773e-008, No Iterations 2
GAMG:  Solving for Uz, Initial residual = 7.13804e-006, Final residual = 5.60855e-007, No Iterations 2
GAMG:  Solving for p, Initial residual = 4.72143e-006, Final residual = 4.35659e-007, No Iterations 2
time step continuity errors : sum local = 0.00160309, global = 3.17071e-006, cumulative = -413.682
rho max/min : 0.542419 0.298488
GAMG:  Solving for h, Initial residual = 4.80081e-007, Final residual = 2.65305e-008, No Iterations 2
GAMG:  Solving for epsilon, Initial residual = 4.75891e-007, Final residual = 2.46946e-008, No Iterations 3
GAMG:  Solving for k, Initial residual = 8.48036e-007, Final residual = 5.20765e-008, No Iterations 3
ExecutionTime = 483.75 s  ClockTime = 484 s

Time = 482

GAMG:  Solving for Ux, Initial residual = 4.57092e-007, Final residual = 2.93511e-008, No Iterations 3
GAMG:  Solving for Uy, Initial residual = 3.62146e-007, Final residual = 3.42352e-008, No Iterations 2
GAMG:  Solving for Uz, Initial residual = 7.08691e-006, Final residual = 5.56621e-007, No Iterations 2
GAMG:  Solving for p, Initial residual = 4.8947e-006, Final residual = 4.44886e-007, No Iterations 2
time step continuity errors : sum local = 0.00163575, global = 1.55558e-005, cumulative = -413.682
rho max/min : 0.542419 0.298488
GAMG:  Solving for h, Initial residual = 4.85591e-007, Final residual = 2.64438e-008, No Iterations 2
GAMG:  Solving for epsilon, Initial residual = 4.75114e-007, Final residual = 2.47726e-008, No Iterations 3
GAMG:  Solving for k, Initial residual = 8.44367e-007, Final residual = 5.20404e-008, No Iterations 3
ExecutionTime = 484.688 s  ClockTime = 485 s

Time = 483

GAMG:  Solving for Ux, Initial residual = 4.60499e-007, Final residual = 2.94079e-008, No Iterations 3
GAMG:  Solving for Uy, Initial residual = 3.55812e-007, Final residual = 3.44364e-008, No Iterations 2
GAMG:  Solving for Uz, Initial residual = 7.18421e-006, Final residual = 5.64218e-007, No Iterations 2
GAMG:  Solving for p, Initial residual = 4.72856e-006, Final residual = 4.36104e-007, No Iterations 2
time step continuity errors : sum local = 0.00160462, global = 2.63693e-006, cumulative = -413.682
rho max/min : 0.542419 0.298488
GAMG:  Solving for h, Initial residual = 4.74188e-007, Final residual = 2.65605e-008, No Iterations 2
GAMG:  Solving for epsilon, Initial residual = 4.75979e-007, Final residual = 2.47603e-008, No Iterations 3
GAMG:  Solving for k, Initial residual = 8.45329e-007, Final residual = 5.21388e-008, No Iterations 3
ExecutionTime = 485.631 s  ClockTime = 486 s

Time = 484

GAMG:  Solving for Ux, Initial residual = 4.56269e-007, Final residual = 2.93774e-008, No Iterations 3
GAMG:  Solving for Uy, Initial residual = 3.60958e-007, Final residual = 3.42369e-008, No Iterations 2
GAMG:  Solving for Uz, Initial residual = 7.08132e-006, Final residual = 5.56209e-007, No Iterations 2
GAMG:  Solving for p, Initial residual = 4.89964e-006, Final residual = 4.42873e-007, No Iterations 2
time step continuity errors : sum local = 0.00162831, global = 1.50067e-005, cumulative = -413.682
rho max/min : 0.542419 0.298488
GAMG:  Solving for h, Initial residual = 4.79695e-007, Final residual = 2.63856e-008, No Iterations 2
GAMG:  Solving for epsilon, Initial residual = 4.73821e-007, Final residual = 2.47362e-008, No Iterations 3
GAMG:  Solving for k, Initial residual = 8.40666e-007, Final residual = 5.19986e-008, No Iterations 3
ExecutionTime = 486.669 s  ClockTime = 487 s

Time = 485

GAMG:  Solving for Ux, Initial residual = 4.60005e-007, Final residual = 2.93509e-008, No Iterations 3
GAMG:  Solving for Uy, Initial residual = 3.54507e-007, Final residual = 3.44228e-008, No Iterations 2
GAMG:  Solving for Uz, Initial residual = 7.1714e-006, Final residual = 5.63029e-007, No Iterations 2
GAMG:  Solving for p, Initial residual = 4.73908e-006, Final residual = 4.37197e-007, No Iterations 2
time step continuity errors : sum local = 0.00160856, global = 2.22541e-006, cumulative = -413.682
rho max/min : 0.542419 0.298488
GAMG:  Solving for h, Initial residual = 4.69587e-007, Final residual = 2.65321e-008, No Iterations 2
GAMG:  Solving for epsilon, Initial residual = 4.76379e-007, Final residual = 2.47759e-008, No Iterations 3
GAMG:  Solving for k, Initial residual = 8.44679e-007, Final residual = 5.22051e-008, No Iterations 3
ExecutionTime = 487.982 s  ClockTime = 488 s

Time = 486

GAMG:  Solving for Ux, Initial residual = 4.57491e-007, Final residual = 2.94808e-008, No Iterations 3
GAMG:  Solving for Uy, Initial residual = 3.62176e-007, Final residual = 3.43594e-008, No Iterations 2
GAMG:  Solving for Uz, Initial residual = 7.11603e-006, Final residual = 5.5856e-007, No Iterations 2
GAMG:  Solving for p, Initial residual = 4.91204e-006, Final residual = 4.45389e-007, No Iterations 2
time step continuity errors : sum local = 0.0016376, global = 1.47988e-005, cumulative = -413.682
rho max/min : 0.542419 0.298488
GAMG:  Solving for h, Initial residual = 4.75274e-007, Final residual = 2.64292e-008, No Iterations 2
GAMG:  Solving for epsilon, Initial residual = 4.75381e-007, Final residual = 2.48372e-008, No Iterations 3
GAMG:  Solving for k, Initial residual = 8.41076e-007, Final residual = 5.21608e-008, No Iterations 3
ExecutionTime = 488.922 s  ClockTime = 489 s

Time = 487

GAMG:  Solving for Ux, Initial residual = 4.61405e-007, Final residual = 2.95119e-008, No Iterations 3
GAMG:  Solving for Uy, Initial residual = 3.55871e-007, Final residual = 3.45501e-008, No Iterations 2
GAMG:  Solving for Uz, Initial residual = 7.20723e-006, Final residual = 5.65616e-007, No Iterations 2
GAMG:  Solving for p, Initial residual = 4.74548e-006, Final residual = 4.37215e-007, No Iterations 2
time step continuity errors : sum local = 0.00160853, global = 1.78902e-006, cumulative = -413.682
rho max/min : 0.542419 0.298488
GAMG:  Solving for h, Initial residual = 4.6433e-007, Final residual = 2.65511e-008, No Iterations 2
GAMG:  Solving for epsilon, Initial residual = 4.76242e-007, Final residual = 2.48227e-008, No Iterations 3
GAMG:  Solving for k, Initial residual = 8.41998e-007, Final residual = 5.22481e-008, No Iterations 3
ExecutionTime = 489.875 s  ClockTime = 490 s

Time = 488

GAMG:  Solving for Ux, Initial residual = 4.56709e-007, Final residual = 2.94926e-008, No Iterations 3
GAMG:  Solving for Uy, Initial residual = 3.60946e-007, Final residual = 3.43572e-008, No Iterations 2
GAMG:  Solving for Uz, Initial residual = 7.10908e-006, Final residual = 5.57986e-007, No Iterations 2
GAMG:  Solving for p, Initial residual = 4.91785e-006, Final residual = 4.43946e-007, No Iterations 2
time step continuity errors : sum local = 0.00163226, global = 1.43393e-005, cumulative = -413.682
rho max/min : 0.542419 0.298488
GAMG:  Solving for h, Initial residual = 4.70202e-007, Final residual = 2.63842e-008, No Iterations 2
GAMG:  Solving for epsilon, Initial residual = 4.74468e-007, Final residual = 2.48119e-008, No Iterations 3
GAMG:  Solving for k, Initial residual = 8.38254e-007, Final residual = 5.2142e-008, No Iterations 3
ExecutionTime = 490.936 s  ClockTime = 491 s

Time = 489

GAMG:  Solving for Ux, Initial residual = 4.61276e-007, Final residual = 2.94869e-008, No Iterations 3
GAMG:  Solving for Uy, Initial residual = 3.55129e-007, Final residual = 3.45614e-008, No Iterations 2
GAMG:  Solving for Uz, Initial residual = 7.20322e-006, Final residual = 5.65089e-007, No Iterations 2
GAMG:  Solving for p, Initial residual = 4.75664e-006, Final residual = 4.38595e-007, No Iterations 2
time step continuity errors : sum local = 0.0016135, global = 1.39892e-006, cumulative = -413.682
rho max/min : 0.542419 0.298488
GAMG:  Solving for h, Initial residual = 4.60279e-007, Final residual = 2.6545e-008, No Iterations 2
GAMG:  Solving for epsilon, Initial residual = 4.76907e-007, Final residual = 2.48558e-008, No Iterations 3
GAMG:  Solving for k, Initial residual = 8.41769e-007, Final residual = 5.23339e-008, No Iterations 3
ExecutionTime = 492.207 s  ClockTime = 492 s

Time = 490

GAMG:  Solving for Ux, Initial residual = 4.57926e-007, Final residual = 2.96052e-008, No Iterations 3
GAMG:  Solving for Uy, Initial residual = 3.6216e-007, Final residual = 3.44786e-008, No Iterations 2
GAMG:  Solving for Uz, Initial residual = 7.14395e-006, Final residual = 5.60356e-007, No Iterations 2
GAMG:  Solving for p, Initial residual = 4.92915e-006, Final residual = 4.45955e-007, No Iterations 2
time step continuity errors : sum local = 0.00163968, global = 1.41552e-005, cumulative = -413.682
rho max/min : 0.542419 0.298488
GAMG:  Solving for h, Initial residual = 4.66102e-007, Final residual = 2.64325e-008, No Iterations 2
GAMG:  Solving for epsilon, Initial residual = 4.75751e-007, Final residual = 2.49029e-008, No Iterations 3
GAMG:  Solving for k, Initial residual = 8.38317e-007, Final residual = 5.22848e-008, No Iterations 3
ExecutionTime = 493.14 s  ClockTime = 493 s

Time = 491

GAMG:  Solving for Ux, Initial residual = 4.62296e-007, Final residual = 2.9617e-008, No Iterations 3
GAMG:  Solving for Uy, Initial residual = 3.56051e-007, Final residual = 3.4663e-008, No Iterations 2
GAMG:  Solving for Uz, Initial residual = 7.23051e-006, Final residual = 5.67033e-007, No Iterations 2
GAMG:  Solving for p, Initial residual = 4.76284e-006, Final residual = 4.38344e-007, No Iterations 2
time step continuity errors : sum local = 0.00161249, global = 1.04382e-006, cumulative = -413.682
rho max/min : 0.542419 0.298488
GAMG:  Solving for h, Initial residual = 4.55496e-007, Final residual = 2.6561e-008, No Iterations 2
GAMG:  Solving for epsilon, Initial residual = 4.76652e-007, Final residual = 2.48891e-008, No Iterations 3
GAMG:  Solving for k, Initial residual = 8.3924e-007, Final residual = 5.23656e-008, No Iterations 3
ExecutionTime = 494.074 s  ClockTime = 494 s

Time = 492

GAMG:  Solving for Ux, Initial residual = 4.57266e-007, Final residual = 2.96101e-008, No Iterations 3
GAMG:  Solving for Uy, Initial residual = 3.60992e-007, Final residual = 3.44785e-008, No Iterations 2
GAMG:  Solving for Uz, Initial residual = 7.13745e-006, Final residual = 5.59771e-007, No Iterations 2
GAMG:  Solving for p, Initial residual = 4.93598e-006, Final residual = 4.45059e-007, No Iterations 2
time step continuity errors : sum local = 0.00163635, global = 1.37749e-005, cumulative = -413.682
rho max/min : 0.542419 0.298488
GAMG:  Solving for h, Initial residual = 4.61646e-007, Final residual = 2.6405e-008, No Iterations 2
GAMG:  Solving for epsilon, Initial residual = 4.75208e-007, Final residual = 2.48903e-008, No Iterations 3
GAMG:  Solving for k, Initial residual = 8.36292e-007, Final residual = 5.22896e-008, No Iterations 3
ExecutionTime = 495.139 s  ClockTime = 495 s

Time = 493

GAMG:  Solving for Ux, Initial residual = 4.6251e-007, Final residual = 2.96216e-008, No Iterations 3
GAMG:  Solving for Uy, Initial residual = 3.55781e-007, Final residual = 3.46968e-008, No Iterations 2
GAMG:  Solving for Uz, Initial residual = 7.23449e-006, Final residual = 5.67102e-007, No Iterations 2
GAMG:  Solving for p, Initial residual = 4.77453e-006, Final residual = 4.39917e-007, No Iterations 2
time step continuity errors : sum local = 0.00161817, global = 6.72503e-007, cumulative = -413.682
rho max/min : 0.542419 0.298488
GAMG:  Solving for h, Initial residual = 4.51802e-007, Final residual = 2.65771e-008, No Iterations 2
GAMG:  Solving for epsilon, Initial residual = 4.77513e-007, Final residual = 2.49366e-008, No Iterations 3
GAMG:  Solving for k, Initial residual = 8.39313e-007, Final residual = 5.24667e-008, No Iterations 3
ExecutionTime = 496.392 s  ClockTime = 496 s

Time = 494

GAMG:  Solving for Ux, Initial residual = 4.5846e-007, Final residual = 2.97281e-008, No Iterations 3
GAMG:  Solving for Uy, Initial residual = 3.62174e-007, Final residual = 3.45976e-008, No Iterations 2
GAMG:  Solving for Uz, Initial residual = 7.17157e-006, Final residual = 5.62109e-007, No Iterations 2
GAMG:  Solving for p, Initial residual = 4.9465e-006, Final residual = 4.46623e-007, No Iterations 2
time step continuity errors : sum local = 0.00164213, global = 1.36052e-005, cumulative = -413.682
rho max/min : 0.542419 0.298488
GAMG:  Solving for h, Initial residual = 4.57751e-007, Final residual = 2.64582e-008, No Iterations 2
GAMG:  Solving for epsilon, Initial residual = 4.7625e-007, Final residual = 2.49719e-008, No Iterations 3
GAMG:  Solving for k, Initial residual = 8.36074e-007, Final residual = 5.24157e-008, No Iterations 3
ExecutionTime = 497.339 s  ClockTime = 497 s

Time = 495

GAMG:  Solving for Ux, Initial residual = 4.63249e-007, Final residual = 2.97259e-008, No Iterations 3
GAMG:  Solving for Uy, Initial residual = 3.56341e-007, Final residual = 3.47781e-008, No Iterations 2
GAMG:  Solving for Uz, Initial residual = 7.25498e-006, Final residual = 5.68533e-007, No Iterations 2
GAMG:  Solving for p, Initial residual = 4.78086e-006, Final residual = 4.39521e-007, No Iterations 2
time step continuity errors : sum local = 0.00161662, global = 3.76976e-007, cumulative = -413.682
rho max/min : 0.542419 0.298488
GAMG:  Solving for h, Initial residual = 4.47414e-007, Final residual = 2.65935e-008, No Iterations 2
GAMG:  Solving for epsilon, Initial residual = 4.7721e-007, Final residual = 2.49608e-008, No Iterations 3
GAMG:  Solving for k, Initial residual = 8.37e-007, Final residual = 5.24936e-008, No Iterations 3
ExecutionTime = 498.281 s  ClockTime = 498 s

Time = 496

GAMG:  Solving for Ux, Initial residual = 4.57954e-007, Final residual = 2.9732e-008, No Iterations 3
GAMG:  Solving for Uy, Initial residual = 3.61144e-007, Final residual = 3.46039e-008, No Iterations 2
GAMG:  Solving for Uz, Initial residual = 7.16668e-006, Final residual = 5.61619e-007, No Iterations 2
GAMG:  Solving for p, Initial residual = 4.95435e-006, Final residual = 4.46224e-007, No Iterations 2
time step continuity errors : sum local = 0.00164062, global = 1.32883e-005, cumulative = -413.682
rho max/min : 0.542419 0.298488
GAMG:  Solving for h, Initial residual = 4.53785e-007, Final residual = 2.64475e-008, No Iterations 2
GAMG:  Solving for epsilon, Initial residual = 4.76047e-007, Final residual = 2.49723e-008, No Iterations 3
GAMG:  Solving for k, Initial residual = 8.34744e-007, Final residual = 5.24436e-008, No Iterations 3
ExecutionTime = 499.387 s  ClockTime = 499 s

Time = 497

GAMG:  Solving for Ux, Initial residual = 4.6377e-007, Final residual = 2.97567e-008, No Iterations 3
GAMG:  Solving for Uy, Initial residual = 3.56458e-007, Final residual = 3.48314e-008, No Iterations 2
GAMG:  Solving for Uz, Initial residual = 7.26574e-006, Final residual = 5.69114e-007, No Iterations 2
GAMG:  Solving for p, Initial residual = 4.79293e-006, Final residual = 4.41201e-007, No Iterations 2
time step continuity errors : sum local = 0.00162269, global = 1.95173e-008, cumulative = -413.682
rho max/min : 0.542419 0.298488
GAMG:  Solving for h, Initial residual = 4.44024e-007, Final residual = 2.66271e-008, No Iterations 2
GAMG:  Solving for epsilon, Initial residual = 4.78201e-007, Final residual = 2.50195e-008, No Iterations 3
GAMG:  Solving for k, Initial residual = 8.37271e-007, Final residual = 5.26064e-008, No Iterations 3
ExecutionTime = 500.628 s  ClockTime = 501 s

Time = 498

GAMG:  Solving for Ux, Initial residual = 4.59098e-007, Final residual = 2.98522e-008, No Iterations 3
GAMG:  Solving for Uy, Initial residual = 3.62267e-007, Final residual = 3.47196e-008, No Iterations 2
GAMG:  Solving for Uz, Initial residual = 7.19935e-006, Final residual = 5.63882e-007, No Iterations 2
GAMG:  Solving for p, Initial residual = 4.96433e-006, Final residual = 4.47411e-007, No Iterations 2
time step continuity errors : sum local = 0.00164502, global = 1.31245e-005, cumulative = -413.682
rho max/min : 0.542419 0.298488
GAMG:  Solving for h, Initial residual = 4.50093e-007, Final residual = 2.6502e-008, No Iterations 2
GAMG:  Solving for epsilon, Initial residual = 4.76887e-007, Final residual = 2.50455e-008, No Iterations 3
GAMG:  Solving for k, Initial residual = 8.3432e-007, Final residual = 5.25564e-008, No Iterations 3
ExecutionTime = 501.569 s  ClockTime = 501 s

Time = 499

GAMG:  Solving for Ux, Initial residual = 4.64309e-007, Final residual = 2.98402e-008, No Iterations 3
GAMG:  Solving for Uy, Initial residual = 3.56733e-007, Final residual = 3.48977e-008, No Iterations 2
GAMG:  Solving for Uz, Initial residual = 7.28093e-006, Final residual = 5.7015e-007, No Iterations 2
GAMG:  Solving for p, Initial residual = 4.7996e-006, Final residual = 4.40758e-007, No Iterations 2
time step continuity errors : sum local = 0.00162096, global = -2.34654e-007, cumulative = -413.682
rho max/min : 0.542419 0.298488
GAMG:  Solving for h, Initial residual = 4.4005e-007, Final residual = 2.66428e-008, No Iterations 2
GAMG:  Solving for epsilon, Initial residual = 4.77909e-007, Final residual = 2.50387e-008, No Iterations 3
GAMG:  Solving for k, Initial residual = 8.35225e-007, Final residual = 5.2634e-008, No Iterations 3
ExecutionTime = 502.519 s  ClockTime = 502 s

Time = 500

GAMG:  Solving for Ux, Initial residual = 4.58754e-007, Final residual = 2.98595e-008, No Iterations 3
GAMG:  Solving for Uy, Initial residual = 3.61415e-007, Final residual = 3.47349e-008, No Iterations 2
GAMG:  Solving for Uz, Initial residual = 7.19691e-006, Final residual = 5.63557e-007, No Iterations 2
GAMG:  Solving for p, Initial residual = 4.97313e-006, Final residual = 4.47442e-007, No Iterations 2
time step continuity errors : sum local = 0.00164509, global = 1.28576e-005, cumulative = -413.682
rho max/min : 0.542419 0.298488
GAMG:  Solving for h, Initial residual = 4.46588e-007, Final residual = 2.65039e-008, No Iterations 2
GAMG:  Solving for epsilon, Initial residual = 4.76986e-007, Final residual = 2.50586e-008, No Iterations 3
GAMG:  Solving for k, Initial residual = 8.33578e-007, Final residual = 5.26063e-008, No Iterations 3
ExecutionTime = 506.319 s  ClockTime = 506 s

End

